22:0
     RDKit          3D

 28 32  0  0  0  0  0  0  0  0999 V2000
   98.5030   87.0870   85.8840 C   0  0  0  0  0  0  0  0  0  0  0  0
   98.8220   88.1140   86.7790 C   0  0  0  0  0  3  0  0  0  0  0  0
   98.3870   89.4230   86.5460 C   0  0  0  0  0  3  0  0  0  0  0  0
   97.6250   89.7120   85.4130 C   0  0  0  0  0  0  0  0  0  0  0  0
   97.1940   91.0160   85.1670 C   0  0  0  0  0  3  0  0  0  0  0  0
   96.4230   91.3140   84.0370 C   0  0  0  0  0  0  0  0  0  0  0  0
   96.0830   90.2760   83.1240 C   0  0  0  0  0  0  0  0  0  0  0  0
   96.5400   88.9760   83.3710 C   0  0  0  0  0  3  0  0  0  0  0  0
   97.2990   88.6850   84.5040 C   0  0  0  0  0  0  0  0  0  0  0  0
   97.7380   87.3800   84.7430 C   0  0  0  0  0  3  0  0  0  0  0  0
   95.3520   90.4720   81.9430 O   0  0  0  0  0  0  0  0  0  0  0  0
   94.1880   91.2820   81.8270 C   0  0  0  0  0  2  0  0  0  0  0  0
   94.5680   92.7120   81.4940 C   0  0  0  0  0  2  0  0  0  0  0  0
   94.2280   93.6410   82.6530 C   0  0  0  0  0  2  0  0  0  0  0  0
   94.7460   93.1030   83.9780 C   0  0  0  0  0  2  0  0  0  0  0  0
   96.0820   92.6490   83.8280 O   0  0  0  0  0  0  0  0  0  0  0  0
  101.0110   85.8290   85.0090 O   0  0  0  0  0  0  0  0  0  0  0  0
  100.2030   85.1710   85.7200 C   0  0  0  0  0  0  0  0  0  0  0  0
   98.9710   85.7610   86.1620 N   0  0  0  0  0  2  0  0  0  0  0  0
  100.5270   83.7850   86.1000 C   0  0  0  0  0  0  0  0  0  0  0  0
   99.6100   83.0270   86.8760 C   0  0  0  0  0  3  0  0  0  0  0  0
   99.8980   81.7010   87.2510 C   0  0  0  0  0  3  0  0  0  0  0  0
  101.1150   81.1790   86.8280 C   0  0  0  0  0  0  0  0  0  0  0  0
  101.6300   79.9620   87.0440 N   0  0  0  0  0  0  0  0  0  0  0  0
  102.7900   79.9880   86.4330 O   0  0  0  0  0  0  0  0  0  0  0  0
  103.0650   81.1250   85.8410 N   0  0  0  0  0  0  0  0  0  0  0  0
  101.9960   81.8930   86.0900 C   0  0  0  0  0  0  0  0  0  0  0  0
  101.7510   83.2050   85.6970 C   0  0  0  0  0  3  0  0  0  0  0  0
  1 19  1  0
  1  2  2  0
  3  2  1  0
  4  3  2  0
  5  4  1  0
  6  5  2  0
  7  8  2  0
  7  6  1  0
  8  9  1  0
  9 10  2  0
  9  4  1  0
 10  1  1  0
 11  7  1  0
 12 11  1  0
 13 12  1  0
 13 14  1  0
 14 15  1  0
 16 15  1  0
 16  6  1  0
 17 18  2  0
 18 20  1  0
 18 19  1  0
 20 21  1  0
 21 22  2  0
 23 24  2  0
 23 22  1  0
 25 24  1  0
 26 27  2  0
 26 25  1  0
 27 23  1  0
 28 27  1  0
 28 20  2  0
M  RAD  8   2   2   3   2   5   2   8   2  10   2  12   3  13   3  14   3
M  RAD  5  15   3  19   2  21   2  22   2  28   2
M  END
>  <MODEL>  (1) 
1

>  <TORSDO>  (1) 
F 2

>  <SCORE>  (1) 
-12.036

>  <ligand_id>  (1) 
22

>  <original_smiles>  (1) 
O=C(Nc1ccc2cc3c(cc2c1)OCCCCO3)c1ccc2nonc2c1

>  <smiles>  (1) 
O=C(Nc1ccc2cc3c(cc2c1)OCCCCO3)c1ccc2nonc2c1

$$$$
22:0
     RDKit          3D

 28 32  0  0  0  0  0  0  0  0999 V2000
   98.5030   87.0870   85.8840 C   0  0  0  0  0  0  0  0  0  0  0  0
   98.8220   88.1140   86.7790 C   0  0  0  0  0  3  0  0  0  0  0  0
   98.3870   89.4230   86.5460 C   0  0  0  0  0  3  0  0  0  0  0  0
   97.6250   89.7120   85.4130 C   0  0  0  0  0  0  0  0  0  0  0  0
   97.1940   91.0160   85.1670 C   0  0  0  0  0  3  0  0  0  0  0  0
   96.4230   91.3140   84.0370 C   0  0  0  0  0  0  0  0  0  0  0  0
   96.0830   90.2760   83.1240 C   0  0  0  0  0  0  0  0  0  0  0  0
   96.5400   88.9760   83.3710 C   0  0  0  0  0  3  0  0  0  0  0  0
   97.2990   88.6850   84.5040 C   0  0  0  0  0  0  0  0  0  0  0  0
   97.7380   87.3800   84.7430 C   0  0  0  0  0  3  0  0  0  0  0  0
   95.3520   90.4720   81.9430 O   0  0  0  0  0  0  0  0  0  0  0  0
   94.1880   91.2820   81.8270 C   0  0  0  0  0  2  0  0  0  0  0  0
   94.5680   92.7120   81.4940 C   0  0  0  0  0  2  0  0  0  0  0  0
   94.2280   93.6410   82.6530 C   0  0  0  0  0  2  0  0  0  0  0  0
   94.7460   93.1030   83.9780 C   0  0  0  0  0  2  0  0  0  0  0  0
   96.0820   92.6490   83.8280 O   0  0  0  0  0  0  0  0  0  0  0  0
  101.0110   85.8290   85.0090 O   0  0  0  0  0  0  0  0  0  0  0  0
  100.2030   85.1710   85.7200 C   0  0  0  0  0  0  0  0  0  0  0  0
   98.9710   85.7610   86.1620 N   0  0  0  0  0  2  0  0  0  0  0  0
  100.5270   83.7850   86.1000 C   0  0  0  0  0  0  0  0  0  0  0  0
   99.6100   83.0270   86.8760 C   0  0  0  0  0  3  0  0  0  0  0  0
   99.8980   81.7010   87.2510 C   0  0  0  0  0  3  0  0  0  0  0  0
  101.1150   81.1790   86.8280 C   0  0  0  0  0  0  0  0  0  0  0  0
  101.6300   79.9620   87.0440 N   0  0  0  0  0  0  0  0  0  0  0  0
  102.7900   79.9880   86.4330 O   0  0  0  0  0  0  0  0  0  0  0  0
  103.0650   81.1250   85.8410 N   0  0  0  0  0  0  0  0  0  0  0  0
  101.9960   81.8930   86.0900 C   0  0  0  0  0  0  0  0  0  0  0  0
  101.7510   83.2050   85.6970 C   0  0  0  0  0  3  0  0  0  0  0  0
  1 19  1  0
  1  2  2  0
  3  2  1  0
  4  3  2  0
  5  4  1  0
  6  5  2  0
  7  8  2  0
  7  6  1  0
  8  9  1  0
  9 10  2  0
  9  4  1  0
 10  1  1  0
 11  7  1  0
 12 11  1  0
 13 12  1  0
 13 14  1  0
 14 15  1  0
 16 15  1  0
 16  6  1  0
 17 18  2  0
 18 20  1  0
 18 19  1  0
 20 21  1  0
 21 22  2  0
 23 24  2  0
 23 22  1  0
 25 24  1  0
 26 27  2  0
 26 25  1  0
 27 23  1  0
 28 27  1  0
 28 20  2  0
M  RAD  8   2   2   3   2   5   2   8   2  10   2  12   3  13   3  14   3
M  RAD  5  15   3  19   2  21   2  22   2  28   2
M  END
>  <MODEL>  (2) 
1

>  <TORSDO>  (2) 
F 2

>  <SCORE>  (2) 
-12.036

>  <ligand_id>  (2) 
22

>  <original_smiles>  (2) 
O=C(Nc1ccc2cc3c(cc2c1)OCCCCO3)c1ccc2nonc2c1

>  <smiles>  (2) 
O=C(Nc1ccc2cc3c(cc2c1)OCCCCO3)c1ccc2nonc2c1

$$$$
22:0
     RDKit          3D

 28 32  0  0  0  0  0  0  0  0999 V2000
   98.5030   87.0870   85.8840 C   0  0  0  0  0  0  0  0  0  0  0  0
   98.8220   88.1140   86.7790 C   0  0  0  0  0  3  0  0  0  0  0  0
   98.3870   89.4230   86.5460 C   0  0  0  0  0  3  0  0  0  0  0  0
   97.6250   89.7120   85.4130 C   0  0  0  0  0  0  0  0  0  0  0  0
   97.1940   91.0160   85.1670 C   0  0  0  0  0  3  0  0  0  0  0  0
   96.4230   91.3140   84.0370 C   0  0  0  0  0  0  0  0  0  0  0  0
   96.0830   90.2760   83.1240 C   0  0  0  0  0  0  0  0  0  0  0  0
   96.5400   88.9760   83.3710 C   0  0  0  0  0  3  0  0  0  0  0  0
   97.2990   88.6850   84.5040 C   0  0  0  0  0  0  0  0  0  0  0  0
   97.7380   87.3800   84.7430 C   0  0  0  0  0  3  0  0  0  0  0  0
   95.3520   90.4720   81.9430 O   0  0  0  0  0  0  0  0  0  0  0  0
   94.1880   91.2820   81.8270 C   0  0  0  0  0  2  0  0  0  0  0  0
   94.5680   92.7120   81.4940 C   0  0  0  0  0  2  0  0  0  0  0  0
   94.2280   93.6410   82.6530 C   0  0  0  0  0  2  0  0  0  0  0  0
   94.7460   93.1030   83.9780 C   0  0  0  0  0  2  0  0  0  0  0  0
   96.0820   92.6490   83.8280 O   0  0  0  0  0  0  0  0  0  0  0  0
  101.0110   85.8290   85.0090 O   0  0  0  0  0  0  0  0  0  0  0  0
  100.2030   85.1710   85.7200 C   0  0  0  0  0  0  0  0  0  0  0  0
   98.9710   85.7610   86.1620 N   0  0  0  0  0  2  0  0  0  0  0  0
  100.5270   83.7850   86.1000 C   0  0  0  0  0  0  0  0  0  0  0  0
   99.6100   83.0270   86.8760 C   0  0  0  0  0  3  0  0  0  0  0  0
   99.8980   81.7010   87.2510 C   0  0  0  0  0  3  0  0  0  0  0  0
  101.1150   81.1790   86.8280 C   0  0  0  0  0  0  0  0  0  0  0  0
  101.6300   79.9620   87.0440 N   0  0  0  0  0  0  0  0  0  0  0  0
  102.7900   79.9880   86.4330 O   0  0  0  0  0  0  0  0  0  0  0  0
  103.0650   81.1250   85.8410 N   0  0  0  0  0  0  0  0  0  0  0  0
  101.9960   81.8930   86.0900 C   0  0  0  0  0  0  0  0  0  0  0  0
  101.7510   83.2050   85.6970 C   0  0  0  0  0  3  0  0  0  0  0  0
  1 19  1  0
  1  2  2  0
  3  2  1  0
  4  3  2  0
  5  4  1  0
  6  5  2  0
  7  8  2  0
  7  6  1  0
  8  9  1  0
  9 10  2  0
  9  4  1  0
 10  1  1  0
 11  7  1  0
 12 11  1  0
 13 12  1  0
 13 14  1  0
 14 15  1  0
 16 15  1  0
 16  6  1  0
 17 18  2  0
 18 20  1  0
 18 19  1  0
 20 21  1  0
 21 22  2  0
 23 24  2  0
 23 22  1  0
 25 24  1  0
 26 27  2  0
 26 25  1  0
 27 23  1  0
 28 27  1  0
 28 20  2  0
M  RAD  8   2   2   3   2   5   2   8   2  10   2  12   3  13   3  14   3
M  RAD  5  15   3  19   2  21   2  22   2  28   2
M  END
>  <MODEL>  (3) 
1

>  <TORSDO>  (3) 
F 2

>  <SCORE>  (3) 
-12.036

>  <ligand_id>  (3) 
22

>  <original_smiles>  (3) 
O=C(Nc1ccc2cc3c(cc2c1)OCCCCO3)c1ccc2nonc2c1

>  <smiles>  (3) 
O=C(Nc1ccc2cc3c(cc2c1)OCCCCO3)c1ccc2nonc2c1

$$$$
22:0
     RDKit          3D

 28 32  0  0  0  0  0  0  0  0999 V2000
   98.5030   87.0870   85.8840 C   0  0  0  0  0  0  0  0  0  0  0  0
   98.8220   88.1140   86.7790 C   0  0  0  0  0  3  0  0  0  0  0  0
   98.3870   89.4230   86.5460 C   0  0  0  0  0  3  0  0  0  0  0  0
   97.6250   89.7120   85.4130 C   0  0  0  0  0  0  0  0  0  0  0  0
   97.1940   91.0160   85.1670 C   0  0  0  0  0  3  0  0  0  0  0  0
   96.4230   91.3140   84.0370 C   0  0  0  0  0  0  0  0  0  0  0  0
   96.0830   90.2760   83.1240 C   0  0  0  0  0  0  0  0  0  0  0  0
   96.5400   88.9760   83.3710 C   0  0  0  0  0  3  0  0  0  0  0  0
   97.2990   88.6850   84.5040 C   0  0  0  0  0  0  0  0  0  0  0  0
   97.7380   87.3800   84.7430 C   0  0  0  0  0  3  0  0  0  0  0  0
   95.3520   90.4720   81.9430 O   0  0  0  0  0  0  0  0  0  0  0  0
   94.1880   91.2820   81.8270 C   0  0  0  0  0  2  0  0  0  0  0  0
   94.5680   92.7120   81.4940 C   0  0  0  0  0  2  0  0  0  0  0  0
   94.2280   93.6410   82.6530 C   0  0  0  0  0  2  0  0  0  0  0  0
   94.7460   93.1030   83.9780 C   0  0  0  0  0  2  0  0  0  0  0  0
   96.0820   92.6490   83.8280 O   0  0  0  0  0  0  0  0  0  0  0  0
  101.0110   85.8290   85.0090 O   0  0  0  0  0  0  0  0  0  0  0  0
  100.2030   85.1710   85.7200 C   0  0  0  0  0  0  0  0  0  0  0  0
   98.9710   85.7610   86.1620 N   0  0  0  0  0  2  0  0  0  0  0  0
  100.5270   83.7850   86.1000 C   0  0  0  0  0  0  0  0  0  0  0  0
   99.6100   83.0270   86.8760 C   0  0  0  0  0  3  0  0  0  0  0  0
   99.8980   81.7010   87.2510 C   0  0  0  0  0  3  0  0  0  0  0  0
  101.1150   81.1790   86.8280 C   0  0  0  0  0  0  0  0  0  0  0  0
  101.6300   79.9620   87.0440 N   0  0  0  0  0  0  0  0  0  0  0  0
  102.7900   79.9880   86.4330 O   0  0  0  0  0  0  0  0  0  0  0  0
  103.0650   81.1250   85.8410 N   0  0  0  0  0  0  0  0  0  0  0  0
  101.9960   81.8930   86.0900 C   0  0  0  0  0  0  0  0  0  0  0  0
  101.7510   83.2050   85.6970 C   0  0  0  0  0  3  0  0  0  0  0  0
  1 19  1  0
  1  2  2  0
  3  2  1  0
  4  3  2  0
  5  4  1  0
  6  5  2  0
  7  8  2  0
  7  6  1  0
  8  9  1  0
  9 10  2  0
  9  4  1  0
 10  1  1  0
 11  7  1  0
 12 11  1  0
 13 12  1  0
 13 14  1  0
 14 15  1  0
 16 15  1  0
 16  6  1  0
 17 18  2  0
 18 20  1  0
 18 19  1  0
 20 21  1  0
 21 22  2  0
 23 24  2  0
 23 22  1  0
 25 24  1  0
 26 27  2  0
 26 25  1  0
 27 23  1  0
 28 27  1  0
 28 20  2  0
M  RAD  8   2   2   3   2   5   2   8   2  10   2  12   3  13   3  14   3
M  RAD  5  15   3  19   2  21   2  22   2  28   2
M  END
>  <MODEL>  (4) 
1

>  <TORSDO>  (4) 
F 2

>  <SCORE>  (4) 
-12.036

>  <ligand_id>  (4) 
22

>  <original_smiles>  (4) 
O=C(Nc1ccc2cc3c(cc2c1)OCCCCO3)c1ccc2nonc2c1

>  <smiles>  (4) 
O=C(Nc1ccc2cc3c(cc2c1)OCCCCO3)c1ccc2nonc2c1

$$$$
22:0
     RDKit          3D

 28 32  0  0  0  0  0  0  0  0999 V2000
   98.5030   87.0870   85.8840 C   0  0  0  0  0  0  0  0  0  0  0  0
   98.8220   88.1140   86.7790 C   0  0  0  0  0  3  0  0  0  0  0  0
   98.3870   89.4230   86.5460 C   0  0  0  0  0  3  0  0  0  0  0  0
   97.6250   89.7120   85.4130 C   0  0  0  0  0  0  0  0  0  0  0  0
   97.1940   91.0160   85.1670 C   0  0  0  0  0  3  0  0  0  0  0  0
   96.4230   91.3140   84.0370 C   0  0  0  0  0  0  0  0  0  0  0  0
   96.0830   90.2760   83.1240 C   0  0  0  0  0  0  0  0  0  0  0  0
   96.5400   88.9760   83.3710 C   0  0  0  0  0  3  0  0  0  0  0  0
   97.2990   88.6850   84.5040 C   0  0  0  0  0  0  0  0  0  0  0  0
   97.7380   87.3800   84.7430 C   0  0  0  0  0  3  0  0  0  0  0  0
   95.3520   90.4720   81.9430 O   0  0  0  0  0  0  0  0  0  0  0  0
   94.1880   91.2820   81.8270 C   0  0  0  0  0  2  0  0  0  0  0  0
   94.5680   92.7120   81.4940 C   0  0  0  0  0  2  0  0  0  0  0  0
   94.2280   93.6410   82.6530 C   0  0  0  0  0  2  0  0  0  0  0  0
   94.7460   93.1030   83.9780 C   0  0  0  0  0  2  0  0  0  0  0  0
   96.0820   92.6490   83.8280 O   0  0  0  0  0  0  0  0  0  0  0  0
  101.0110   85.8290   85.0090 O   0  0  0  0  0  0  0  0  0  0  0  0
  100.2030   85.1710   85.7200 C   0  0  0  0  0  0  0  0  0  0  0  0
   98.9710   85.7610   86.1620 N   0  0  0  0  0  2  0  0  0  0  0  0
  100.5270   83.7850   86.1000 C   0  0  0  0  0  0  0  0  0  0  0  0
   99.6100   83.0270   86.8760 C   0  0  0  0  0  3  0  0  0  0  0  0
   99.8980   81.7010   87.2510 C   0  0  0  0  0  3  0  0  0  0  0  0
  101.1150   81.1790   86.8280 C   0  0  0  0  0  0  0  0  0  0  0  0
  101.6300   79.9620   87.0440 N   0  0  0  0  0  0  0  0  0  0  0  0
  102.7900   79.9880   86.4330 O   0  0  0  0  0  0  0  0  0  0  0  0
  103.0650   81.1250   85.8410 N   0  0  0  0  0  0  0  0  0  0  0  0
  101.9960   81.8930   86.0900 C   0  0  0  0  0  0  0  0  0  0  0  0
  101.7510   83.2050   85.6970 C   0  0  0  0  0  3  0  0  0  0  0  0
  1 19  1  0
  1  2  2  0
  3  2  1  0
  4  3  2  0
  5  4  1  0
  6  5  2  0
  7  8  2  0
  7  6  1  0
  8  9  1  0
  9 10  2  0
  9  4  1  0
 10  1  1  0
 11  7  1  0
 12 11  1  0
 13 12  1  0
 13 14  1  0
 14 15  1  0
 16 15  1  0
 16  6  1  0
 17 18  2  0
 18 20  1  0
 18 19  1  0
 20 21  1  0
 21 22  2  0
 23 24  2  0
 23 22  1  0
 25 24  1  0
 26 27  2  0
 26 25  1  0
 27 23  1  0
 28 27  1  0
 28 20  2  0
M  RAD  8   2   2   3   2   5   2   8   2  10   2  12   3  13   3  14   3
M  RAD  5  15   3  19   2  21   2  22   2  28   2
M  END
>  <MODEL>  (5) 
1

>  <TORSDO>  (5) 
F 2

>  <SCORE>  (5) 
-12.036

>  <ligand_id>  (5) 
22

>  <original_smiles>  (5) 
O=C(Nc1ccc2cc3c(cc2c1)OCCCCO3)c1ccc2nonc2c1

>  <smiles>  (5) 
O=C(Nc1ccc2cc3c(cc2c1)OCCCCO3)c1ccc2nonc2c1

$$$$
22:0
     RDKit          3D

 28 32  0  0  0  0  0  0  0  0999 V2000
   98.5030   87.0870   85.8840 C   0  0  0  0  0  0  0  0  0  0  0  0
   98.8220   88.1140   86.7790 C   0  0  0  0  0  3  0  0  0  0  0  0
   98.3870   89.4230   86.5460 C   0  0  0  0  0  3  0  0  0  0  0  0
   97.6250   89.7120   85.4130 C   0  0  0  0  0  0  0  0  0  0  0  0
   97.1940   91.0160   85.1670 C   0  0  0  0  0  3  0  0  0  0  0  0
   96.4230   91.3140   84.0370 C   0  0  0  0  0  0  0  0  0  0  0  0
   96.0830   90.2760   83.1240 C   0  0  0  0  0  0  0  0  0  0  0  0
   96.5400   88.9760   83.3710 C   0  0  0  0  0  3  0  0  0  0  0  0
   97.2990   88.6850   84.5040 C   0  0  0  0  0  0  0  0  0  0  0  0
   97.7380   87.3800   84.7430 C   0  0  0  0  0  3  0  0  0  0  0  0
   95.3520   90.4720   81.9430 O   0  0  0  0  0  0  0  0  0  0  0  0
   94.1880   91.2820   81.8270 C   0  0  0  0  0  2  0  0  0  0  0  0
   94.5680   92.7120   81.4940 C   0  0  0  0  0  2  0  0  0  0  0  0
   94.2280   93.6410   82.6530 C   0  0  0  0  0  2  0  0  0  0  0  0
   94.7460   93.1030   83.9780 C   0  0  0  0  0  2  0  0  0  0  0  0
   96.0820   92.6490   83.8280 O   0  0  0  0  0  0  0  0  0  0  0  0
  101.0110   85.8290   85.0090 O   0  0  0  0  0  0  0  0  0  0  0  0
  100.2030   85.1710   85.7200 C   0  0  0  0  0  0  0  0  0  0  0  0
   98.9710   85.7610   86.1620 N   0  0  0  0  0  2  0  0  0  0  0  0
  100.5270   83.7850   86.1000 C   0  0  0  0  0  0  0  0  0  0  0  0
   99.6100   83.0270   86.8760 C   0  0  0  0  0  3  0  0  0  0  0  0
   99.8980   81.7010   87.2510 C   0  0  0  0  0  3  0  0  0  0  0  0
  101.1150   81.1790   86.8280 C   0  0  0  0  0  0  0  0  0  0  0  0
  101.6300   79.9620   87.0440 N   0  0  0  0  0  0  0  0  0  0  0  0
  102.7900   79.9880   86.4330 O   0  0  0  0  0  0  0  0  0  0  0  0
  103.0650   81.1250   85.8410 N   0  0  0  0  0  0  0  0  0  0  0  0
  101.9960   81.8930   86.0900 C   0  0  0  0  0  0  0  0  0  0  0  0
  101.7510   83.2050   85.6970 C   0  0  0  0  0  3  0  0  0  0  0  0
  1 19  1  0
  1  2  2  0
  3  2  1  0
  4  3  2  0
  5  4  1  0
  6  5  2  0
  7  8  2  0
  7  6  1  0
  8  9  1  0
  9 10  2  0
  9  4  1  0
 10  1  1  0
 11  7  1  0
 12 11  1  0
 13 12  1  0
 13 14  1  0
 14 15  1  0
 16 15  1  0
 16  6  1  0
 17 18  2  0
 18 20  1  0
 18 19  1  0
 20 21  1  0
 21 22  2  0
 23 24  2  0
 23 22  1  0
 25 24  1  0
 26 27  2  0
 26 25  1  0
 27 23  1  0
 28 27  1  0
 28 20  2  0
M  RAD  8   2   2   3   2   5   2   8   2  10   2  12   3  13   3  14   3
M  RAD  5  15   3  19   2  21   2  22   2  28   2
M  END
>  <MODEL>  (6) 
1

>  <TORSDO>  (6) 
F 2

>  <SCORE>  (6) 
-12.036

>  <ligand_id>  (6) 
22

>  <original_smiles>  (6) 
O=C(Nc1ccc2cc3c(cc2c1)OCCCCO3)c1ccc2nonc2c1

>  <smiles>  (6) 
O=C(Nc1ccc2cc3c(cc2c1)OCCCCO3)c1ccc2nonc2c1

$$$$
22:0
     RDKit          3D

 28 32  0  0  0  0  0  0  0  0999 V2000
   98.5030   87.0870   85.8840 C   0  0  0  0  0  0  0  0  0  0  0  0
   98.8220   88.1140   86.7790 C   0  0  0  0  0  3  0  0  0  0  0  0
   98.3870   89.4230   86.5460 C   0  0  0  0  0  3  0  0  0  0  0  0
   97.6250   89.7120   85.4130 C   0  0  0  0  0  0  0  0  0  0  0  0
   97.1940   91.0160   85.1670 C   0  0  0  0  0  3  0  0  0  0  0  0
   96.4230   91.3140   84.0370 C   0  0  0  0  0  0  0  0  0  0  0  0
   96.0830   90.2760   83.1240 C   0  0  0  0  0  0  0  0  0  0  0  0
   96.5400   88.9760   83.3710 C   0  0  0  0  0  3  0  0  0  0  0  0
   97.2990   88.6850   84.5040 C   0  0  0  0  0  0  0  0  0  0  0  0
   97.7380   87.3800   84.7430 C   0  0  0  0  0  3  0  0  0  0  0  0
   95.3520   90.4720   81.9430 O   0  0  0  0  0  0  0  0  0  0  0  0
   94.1880   91.2820   81.8270 C   0  0  0  0  0  2  0  0  0  0  0  0
   94.5680   92.7120   81.4940 C   0  0  0  0  0  2  0  0  0  0  0  0
   94.2280   93.6410   82.6530 C   0  0  0  0  0  2  0  0  0  0  0  0
   94.7460   93.1030   83.9780 C   0  0  0  0  0  2  0  0  0  0  0  0
   96.0820   92.6490   83.8280 O   0  0  0  0  0  0  0  0  0  0  0  0
  101.0110   85.8290   85.0090 O   0  0  0  0  0  0  0  0  0  0  0  0
  100.2030   85.1710   85.7200 C   0  0  0  0  0  0  0  0  0  0  0  0
   98.9710   85.7610   86.1620 N   0  0  0  0  0  2  0  0  0  0  0  0
  100.5270   83.7850   86.1000 C   0  0  0  0  0  0  0  0  0  0  0  0
   99.6100   83.0270   86.8760 C   0  0  0  0  0  3  0  0  0  0  0  0
   99.8980   81.7010   87.2510 C   0  0  0  0  0  3  0  0  0  0  0  0
  101.1150   81.1790   86.8280 C   0  0  0  0  0  0  0  0  0  0  0  0
  101.6300   79.9620   87.0440 N   0  0  0  0  0  0  0  0  0  0  0  0
  102.7900   79.9880   86.4330 O   0  0  0  0  0  0  0  0  0  0  0  0
  103.0650   81.1250   85.8410 N   0  0  0  0  0  0  0  0  0  0  0  0
  101.9960   81.8930   86.0900 C   0  0  0  0  0  0  0  0  0  0  0  0
  101.7510   83.2050   85.6970 C   0  0  0  0  0  3  0  0  0  0  0  0
  1 19  1  0
  1  2  2  0
  3  2  1  0
  4  3  2  0
  5  4  1  0
  6  5  2  0
  7  8  2  0
  7  6  1  0
  8  9  1  0
  9 10  2  0
  9  4  1  0
 10  1  1  0
 11  7  1  0
 12 11  1  0
 13 12  1  0
 13 14  1  0
 14 15  1  0
 16 15  1  0
 16  6  1  0
 17 18  2  0
 18 20  1  0
 18 19  1  0
 20 21  1  0
 21 22  2  0
 23 24  2  0
 23 22  1  0
 25 24  1  0
 26 27  2  0
 26 25  1  0
 27 23  1  0
 28 27  1  0
 28 20  2  0
M  RAD  8   2   2   3   2   5   2   8   2  10   2  12   3  13   3  14   3
M  RAD  5  15   3  19   2  21   2  22   2  28   2
M  END
>  <MODEL>  (7) 
1

>  <TORSDO>  (7) 
F 2

>  <SCORE>  (7) 
-12.036

>  <ligand_id>  (7) 
22

>  <original_smiles>  (7) 
O=C(Nc1ccc2cc3c(cc2c1)OCCCCO3)c1ccc2nonc2c1

>  <smiles>  (7) 
O=C(Nc1ccc2cc3c(cc2c1)OCCCCO3)c1ccc2nonc2c1

$$$$
22:0
     RDKit          3D

 28 32  0  0  0  0  0  0  0  0999 V2000
   98.5030   87.0870   85.8840 C   0  0  0  0  0  0  0  0  0  0  0  0
   98.8220   88.1140   86.7790 C   0  0  0  0  0  3  0  0  0  0  0  0
   98.3870   89.4230   86.5460 C   0  0  0  0  0  3  0  0  0  0  0  0
   97.6250   89.7120   85.4130 C   0  0  0  0  0  0  0  0  0  0  0  0
   97.1940   91.0160   85.1670 C   0  0  0  0  0  3  0  0  0  0  0  0
   96.4230   91.3140   84.0370 C   0  0  0  0  0  0  0  0  0  0  0  0
   96.0830   90.2760   83.1240 C   0  0  0  0  0  0  0  0  0  0  0  0
   96.5400   88.9760   83.3710 C   0  0  0  0  0  3  0  0  0  0  0  0
   97.2990   88.6850   84.5040 C   0  0  0  0  0  0  0  0  0  0  0  0
   97.7380   87.3800   84.7430 C   0  0  0  0  0  3  0  0  0  0  0  0
   95.3520   90.4720   81.9430 O   0  0  0  0  0  0  0  0  0  0  0  0
   94.1880   91.2820   81.8270 C   0  0  0  0  0  2  0  0  0  0  0  0
   94.5680   92.7120   81.4940 C   0  0  0  0  0  2  0  0  0  0  0  0
   94.2280   93.6410   82.6530 C   0  0  0  0  0  2  0  0  0  0  0  0
   94.7460   93.1030   83.9780 C   0  0  0  0  0  2  0  0  0  0  0  0
   96.0820   92.6490   83.8280 O   0  0  0  0  0  0  0  0  0  0  0  0
  101.0110   85.8290   85.0090 O   0  0  0  0  0  0  0  0  0  0  0  0
  100.2030   85.1710   85.7200 C   0  0  0  0  0  0  0  0  0  0  0  0
   98.9710   85.7610   86.1620 N   0  0  0  0  0  2  0  0  0  0  0  0
  100.5270   83.7850   86.1000 C   0  0  0  0  0  0  0  0  0  0  0  0
   99.6100   83.0270   86.8760 C   0  0  0  0  0  3  0  0  0  0  0  0
   99.8980   81.7010   87.2510 C   0  0  0  0  0  3  0  0  0  0  0  0
  101.1150   81.1790   86.8280 C   0  0  0  0  0  0  0  0  0  0  0  0
  101.6300   79.9620   87.0440 N   0  0  0  0  0  0  0  0  0  0  0  0
  102.7900   79.9880   86.4330 O   0  0  0  0  0  0  0  0  0  0  0  0
  103.0650   81.1250   85.8410 N   0  0  0  0  0  0  0  0  0  0  0  0
  101.9960   81.8930   86.0900 C   0  0  0  0  0  0  0  0  0  0  0  0
  101.7510   83.2050   85.6970 C   0  0  0  0  0  3  0  0  0  0  0  0
  1 19  1  0
  1  2  2  0
  3  2  1  0
  4  3  2  0
  5  4  1  0
  6  5  2  0
  7  8  2  0
  7  6  1  0
  8  9  1  0
  9 10  2  0
  9  4  1  0
 10  1  1  0
 11  7  1  0
 12 11  1  0
 13 12  1  0
 13 14  1  0
 14 15  1  0
 16 15  1  0
 16  6  1  0
 17 18  2  0
 18 20  1  0
 18 19  1  0
 20 21  1  0
 21 22  2  0
 23 24  2  0
 23 22  1  0
 25 24  1  0
 26 27  2  0
 26 25  1  0
 27 23  1  0
 28 27  1  0
 28 20  2  0
M  RAD  8   2   2   3   2   5   2   8   2  10   2  12   3  13   3  14   3
M  RAD  5  15   3  19   2  21   2  22   2  28   2
M  END
>  <MODEL>  (8) 
1

>  <TORSDO>  (8) 
F 2

>  <SCORE>  (8) 
-12.036

>  <ligand_id>  (8) 
22

>  <original_smiles>  (8) 
O=C(Nc1ccc2cc3c(cc2c1)OCCCCO3)c1ccc2nonc2c1

>  <smiles>  (8) 
O=C(Nc1ccc2cc3c(cc2c1)OCCCCO3)c1ccc2nonc2c1

$$$$
22:0
     RDKit          3D

 28 32  0  0  0  0  0  0  0  0999 V2000
   98.5030   87.0870   85.8840 C   0  0  0  0  0  0  0  0  0  0  0  0
   98.8220   88.1140   86.7790 C   0  0  0  0  0  3  0  0  0  0  0  0
   98.3870   89.4230   86.5460 C   0  0  0  0  0  3  0  0  0  0  0  0
   97.6250   89.7120   85.4130 C   0  0  0  0  0  0  0  0  0  0  0  0
   97.1940   91.0160   85.1670 C   0  0  0  0  0  3  0  0  0  0  0  0
   96.4230   91.3140   84.0370 C   0  0  0  0  0  0  0  0  0  0  0  0
   96.0830   90.2760   83.1240 C   0  0  0  0  0  0  0  0  0  0  0  0
   96.5400   88.9760   83.3710 C   0  0  0  0  0  3  0  0  0  0  0  0
   97.2990   88.6850   84.5040 C   0  0  0  0  0  0  0  0  0  0  0  0
   97.7380   87.3800   84.7430 C   0  0  0  0  0  3  0  0  0  0  0  0
   95.3520   90.4720   81.9430 O   0  0  0  0  0  0  0  0  0  0  0  0
   94.1880   91.2820   81.8270 C   0  0  0  0  0  2  0  0  0  0  0  0
   94.5680   92.7120   81.4940 C   0  0  0  0  0  2  0  0  0  0  0  0
   94.2280   93.6410   82.6530 C   0  0  0  0  0  2  0  0  0  0  0  0
   94.7460   93.1030   83.9780 C   0  0  0  0  0  2  0  0  0  0  0  0
   96.0820   92.6490   83.8280 O   0  0  0  0  0  0  0  0  0  0  0  0
  101.0110   85.8290   85.0090 O   0  0  0  0  0  0  0  0  0  0  0  0
  100.2030   85.1710   85.7200 C   0  0  0  0  0  0  0  0  0  0  0  0
   98.9710   85.7610   86.1620 N   0  0  0  0  0  2  0  0  0  0  0  0
  100.5270   83.7850   86.1000 C   0  0  0  0  0  0  0  0  0  0  0  0
   99.6100   83.0270   86.8760 C   0  0  0  0  0  3  0  0  0  0  0  0
   99.8980   81.7010   87.2510 C   0  0  0  0  0  3  0  0  0  0  0  0
  101.1150   81.1790   86.8280 C   0  0  0  0  0  0  0  0  0  0  0  0
  101.6300   79.9620   87.0440 N   0  0  0  0  0  0  0  0  0  0  0  0
  102.7900   79.9880   86.4330 O   0  0  0  0  0  0  0  0  0  0  0  0
  103.0650   81.1250   85.8410 N   0  0  0  0  0  0  0  0  0  0  0  0
  101.9960   81.8930   86.0900 C   0  0  0  0  0  0  0  0  0  0  0  0
  101.7510   83.2050   85.6970 C   0  0  0  0  0  3  0  0  0  0  0  0
  1 19  1  0
  1  2  2  0
  3  2  1  0
  4  3  2  0
  5  4  1  0
  6  5  2  0
  7  8  2  0
  7  6  1  0
  8  9  1  0
  9 10  2  0
  9  4  1  0
 10  1  1  0
 11  7  1  0
 12 11  1  0
 13 12  1  0
 13 14  1  0
 14 15  1  0
 16 15  1  0
 16  6  1  0
 17 18  2  0
 18 20  1  0
 18 19  1  0
 20 21  1  0
 21 22  2  0
 23 24  2  0
 23 22  1  0
 25 24  1  0
 26 27  2  0
 26 25  1  0
 27 23  1  0
 28 27  1  0
 28 20  2  0
M  RAD  8   2   2   3   2   5   2   8   2  10   2  12   3  13   3  14   3
M  RAD  5  15   3  19   2  21   2  22   2  28   2
M  END
>  <MODEL>  (9) 
1

>  <TORSDO>  (9) 
F 2

>  <SCORE>  (9) 
-12.036

>  <ligand_id>  (9) 
22

>  <original_smiles>  (9) 
O=C(Nc1ccc2cc3c(cc2c1)OCCCCO3)c1ccc2nonc2c1

>  <smiles>  (9) 
O=C(Nc1ccc2cc3c(cc2c1)OCCCCO3)c1ccc2nonc2c1

$$$$
22:0
     RDKit          3D

 28 32  0  0  0  0  0  0  0  0999 V2000
   98.5030   87.0870   85.8840 C   0  0  0  0  0  0  0  0  0  0  0  0
   98.8220   88.1140   86.7790 C   0  0  0  0  0  3  0  0  0  0  0  0
   98.3870   89.4230   86.5460 C   0  0  0  0  0  3  0  0  0  0  0  0
   97.6250   89.7120   85.4130 C   0  0  0  0  0  0  0  0  0  0  0  0
   97.1940   91.0160   85.1670 C   0  0  0  0  0  3  0  0  0  0  0  0
   96.4230   91.3140   84.0370 C   0  0  0  0  0  0  0  0  0  0  0  0
   96.0830   90.2760   83.1240 C   0  0  0  0  0  0  0  0  0  0  0  0
   96.5400   88.9760   83.3710 C   0  0  0  0  0  3  0  0  0  0  0  0
   97.2990   88.6850   84.5040 C   0  0  0  0  0  0  0  0  0  0  0  0
   97.7380   87.3800   84.7430 C   0  0  0  0  0  3  0  0  0  0  0  0
   95.3520   90.4720   81.9430 O   0  0  0  0  0  0  0  0  0  0  0  0
   94.1880   91.2820   81.8270 C   0  0  0  0  0  2  0  0  0  0  0  0
   94.5680   92.7120   81.4940 C   0  0  0  0  0  2  0  0  0  0  0  0
   94.2280   93.6410   82.6530 C   0  0  0  0  0  2  0  0  0  0  0  0
   94.7460   93.1030   83.9780 C   0  0  0  0  0  2  0  0  0  0  0  0
   96.0820   92.6490   83.8280 O   0  0  0  0  0  0  0  0  0  0  0  0
  101.0110   85.8290   85.0090 O   0  0  0  0  0  0  0  0  0  0  0  0
  100.2030   85.1710   85.7200 C   0  0  0  0  0  0  0  0  0  0  0  0
   98.9710   85.7610   86.1620 N   0  0  0  0  0  2  0  0  0  0  0  0
  100.5270   83.7850   86.1000 C   0  0  0  0  0  0  0  0  0  0  0  0
   99.6100   83.0270   86.8760 C   0  0  0  0  0  3  0  0  0  0  0  0
   99.8980   81.7010   87.2510 C   0  0  0  0  0  3  0  0  0  0  0  0
  101.1150   81.1790   86.8280 C   0  0  0  0  0  0  0  0  0  0  0  0
  101.6300   79.9620   87.0440 N   0  0  0  0  0  0  0  0  0  0  0  0
  102.7900   79.9880   86.4330 O   0  0  0  0  0  0  0  0  0  0  0  0
  103.0650   81.1250   85.8410 N   0  0  0  0  0  0  0  0  0  0  0  0
  101.9960   81.8930   86.0900 C   0  0  0  0  0  0  0  0  0  0  0  0
  101.7510   83.2050   85.6970 C   0  0  0  0  0  3  0  0  0  0  0  0
  1 19  1  0
  1  2  2  0
  3  2  1  0
  4  3  2  0
  5  4  1  0
  6  5  2  0
  7  8  2  0
  7  6  1  0
  8  9  1  0
  9 10  2  0
  9  4  1  0
 10  1  1  0
 11  7  1  0
 12 11  1  0
 13 12  1  0
 13 14  1  0
 14 15  1  0
 16 15  1  0
 16  6  1  0
 17 18  2  0
 18 20  1  0
 18 19  1  0
 20 21  1  0
 21 22  2  0
 23 24  2  0
 23 22  1  0
 25 24  1  0
 26 27  2  0
 26 25  1  0
 27 23  1  0
 28 27  1  0
 28 20  2  0
M  RAD  8   2   2   3   2   5   2   8   2  10   2  12   3  13   3  14   3
M  RAD  5  15   3  19   2  21   2  22   2  28   2
M  END
>  <MODEL>  (10) 
1

>  <TORSDO>  (10) 
F 2

>  <SCORE>  (10) 
-12.036

>  <ligand_id>  (10) 
22

>  <original_smiles>  (10) 
O=C(Nc1ccc2cc3c(cc2c1)OCCCCO3)c1ccc2nonc2c1

>  <smiles>  (10) 
O=C(Nc1ccc2cc3c(cc2c1)OCCCCO3)c1ccc2nonc2c1

$$$$
22:0
     RDKit          3D

 28 32  0  0  0  0  0  0  0  0999 V2000
   98.5030   87.0870   85.8840 C   0  0  0  0  0  0  0  0  0  0  0  0
   98.8220   88.1140   86.7790 C   0  0  0  0  0  3  0  0  0  0  0  0
   98.3870   89.4230   86.5460 C   0  0  0  0  0  3  0  0  0  0  0  0
   97.6250   89.7120   85.4130 C   0  0  0  0  0  0  0  0  0  0  0  0
   97.1940   91.0160   85.1670 C   0  0  0  0  0  3  0  0  0  0  0  0
   96.4230   91.3140   84.0370 C   0  0  0  0  0  0  0  0  0  0  0  0
   96.0830   90.2760   83.1240 C   0  0  0  0  0  0  0  0  0  0  0  0
   96.5400   88.9760   83.3710 C   0  0  0  0  0  3  0  0  0  0  0  0
   97.2990   88.6850   84.5040 C   0  0  0  0  0  0  0  0  0  0  0  0
   97.7380   87.3800   84.7430 C   0  0  0  0  0  3  0  0  0  0  0  0
   95.3520   90.4720   81.9430 O   0  0  0  0  0  0  0  0  0  0  0  0
   94.1880   91.2820   81.8270 C   0  0  0  0  0  2  0  0  0  0  0  0
   94.5680   92.7120   81.4940 C   0  0  0  0  0  2  0  0  0  0  0  0
   94.2280   93.6410   82.6530 C   0  0  0  0  0  2  0  0  0  0  0  0
   94.7460   93.1030   83.9780 C   0  0  0  0  0  2  0  0  0  0  0  0
   96.0820   92.6490   83.8280 O   0  0  0  0  0  0  0  0  0  0  0  0
  101.0110   85.8290   85.0090 O   0  0  0  0  0  0  0  0  0  0  0  0
  100.2030   85.1710   85.7200 C   0  0  0  0  0  0  0  0  0  0  0  0
   98.9710   85.7610   86.1620 N   0  0  0  0  0  2  0  0  0  0  0  0
  100.5270   83.7850   86.1000 C   0  0  0  0  0  0  0  0  0  0  0  0
   99.6100   83.0270   86.8760 C   0  0  0  0  0  3  0  0  0  0  0  0
   99.8980   81.7010   87.2510 C   0  0  0  0  0  3  0  0  0  0  0  0
  101.1150   81.1790   86.8280 C   0  0  0  0  0  0  0  0  0  0  0  0
  101.6300   79.9620   87.0440 N   0  0  0  0  0  0  0  0  0  0  0  0
  102.7900   79.9880   86.4330 O   0  0  0  0  0  0  0  0  0  0  0  0
  103.0650   81.1250   85.8410 N   0  0  0  0  0  0  0  0  0  0  0  0
  101.9960   81.8930   86.0900 C   0  0  0  0  0  0  0  0  0  0  0  0
  101.7510   83.2050   85.6970 C   0  0  0  0  0  3  0  0  0  0  0  0
  1 19  1  0
  1  2  2  0
  3  2  1  0
  4  3  2  0
  5  4  1  0
  6  5  2  0
  7  8  2  0
  7  6  1  0
  8  9  1  0
  9 10  2  0
  9  4  1  0
 10  1  1  0
 11  7  1  0
 12 11  1  0
 13 12  1  0
 13 14  1  0
 14 15  1  0
 16 15  1  0
 16  6  1  0
 17 18  2  0
 18 20  1  0
 18 19  1  0
 20 21  1  0
 21 22  2  0
 23 24  2  0
 23 22  1  0
 25 24  1  0
 26 27  2  0
 26 25  1  0
 27 23  1  0
 28 27  1  0
 28 20  2  0
M  RAD  8   2   2   3   2   5   2   8   2  10   2  12   3  13   3  14   3
M  RAD  5  15   3  19   2  21   2  22   2  28   2
M  END
>  <MODEL>  (11) 
1

>  <TORSDO>  (11) 
F 2

>  <SCORE>  (11) 
-12.036

>  <ligand_id>  (11) 
22

>  <original_smiles>  (11) 
O=C(Nc1ccc2cc3c(cc2c1)OCCCCO3)c1ccc2nonc2c1

>  <smiles>  (11) 
O=C(Nc1ccc2cc3c(cc2c1)OCCCCO3)c1ccc2nonc2c1

$$$$
22:0
     RDKit          3D

 28 32  0  0  0  0  0  0  0  0999 V2000
   98.5030   87.0870   85.8840 C   0  0  0  0  0  0  0  0  0  0  0  0
   98.8220   88.1140   86.7790 C   0  0  0  0  0  3  0  0  0  0  0  0
   98.3870   89.4230   86.5460 C   0  0  0  0  0  3  0  0  0  0  0  0
   97.6250   89.7120   85.4130 C   0  0  0  0  0  0  0  0  0  0  0  0
   97.1940   91.0160   85.1670 C   0  0  0  0  0  3  0  0  0  0  0  0
   96.4230   91.3140   84.0370 C   0  0  0  0  0  0  0  0  0  0  0  0
   96.0830   90.2760   83.1240 C   0  0  0  0  0  0  0  0  0  0  0  0
   96.5400   88.9760   83.3710 C   0  0  0  0  0  3  0  0  0  0  0  0
   97.2990   88.6850   84.5040 C   0  0  0  0  0  0  0  0  0  0  0  0
   97.7380   87.3800   84.7430 C   0  0  0  0  0  3  0  0  0  0  0  0
   95.3520   90.4720   81.9430 O   0  0  0  0  0  0  0  0  0  0  0  0
   94.1880   91.2820   81.8270 C   0  0  0  0  0  2  0  0  0  0  0  0
   94.5680   92.7120   81.4940 C   0  0  0  0  0  2  0  0  0  0  0  0
   94.2280   93.6410   82.6530 C   0  0  0  0  0  2  0  0  0  0  0  0
   94.7460   93.1030   83.9780 C   0  0  0  0  0  2  0  0  0  0  0  0
   96.0820   92.6490   83.8280 O   0  0  0  0  0  0  0  0  0  0  0  0
  101.0110   85.8290   85.0090 O   0  0  0  0  0  0  0  0  0  0  0  0
  100.2030   85.1710   85.7200 C   0  0  0  0  0  0  0  0  0  0  0  0
   98.9710   85.7610   86.1620 N   0  0  0  0  0  2  0  0  0  0  0  0
  100.5270   83.7850   86.1000 C   0  0  0  0  0  0  0  0  0  0  0  0
   99.6100   83.0270   86.8760 C   0  0  0  0  0  3  0  0  0  0  0  0
   99.8980   81.7010   87.2510 C   0  0  0  0  0  3  0  0  0  0  0  0
  101.1150   81.1790   86.8280 C   0  0  0  0  0  0  0  0  0  0  0  0
  101.6300   79.9620   87.0440 N   0  0  0  0  0  0  0  0  0  0  0  0
  102.7900   79.9880   86.4330 O   0  0  0  0  0  0  0  0  0  0  0  0
  103.0650   81.1250   85.8410 N   0  0  0  0  0  0  0  0  0  0  0  0
  101.9960   81.8930   86.0900 C   0  0  0  0  0  0  0  0  0  0  0  0
  101.7510   83.2050   85.6970 C   0  0  0  0  0  3  0  0  0  0  0  0
  1 19  1  0
  1  2  2  0
  3  2  1  0
  4  3  2  0
  5  4  1  0
  6  5  2  0
  7  8  2  0
  7  6  1  0
  8  9  1  0
  9 10  2  0
  9  4  1  0
 10  1  1  0
 11  7  1  0
 12 11  1  0
 13 12  1  0
 13 14  1  0
 14 15  1  0
 16 15  1  0
 16  6  1  0
 17 18  2  0
 18 20  1  0
 18 19  1  0
 20 21  1  0
 21 22  2  0
 23 24  2  0
 23 22  1  0
 25 24  1  0
 26 27  2  0
 26 25  1  0
 27 23  1  0
 28 27  1  0
 28 20  2  0
M  RAD  8   2   2   3   2   5   2   8   2  10   2  12   3  13   3  14   3
M  RAD  5  15   3  19   2  21   2  22   2  28   2
M  END
>  <MODEL>  (12) 
1

>  <TORSDO>  (12) 
F 2

>  <SCORE>  (12) 
-12.036

>  <ligand_id>  (12) 
22

>  <original_smiles>  (12) 
O=C(Nc1ccc2cc3c(cc2c1)OCCCCO3)c1ccc2nonc2c1

>  <smiles>  (12) 
O=C(Nc1ccc2cc3c(cc2c1)OCCCCO3)c1ccc2nonc2c1

$$$$
22:0
     RDKit          3D

 28 32  0  0  0  0  0  0  0  0999 V2000
   98.5030   87.0870   85.8840 C   0  0  0  0  0  0  0  0  0  0  0  0
   98.8220   88.1140   86.7790 C   0  0  0  0  0  3  0  0  0  0  0  0
   98.3870   89.4230   86.5460 C   0  0  0  0  0  3  0  0  0  0  0  0
   97.6250   89.7120   85.4130 C   0  0  0  0  0  0  0  0  0  0  0  0
   97.1940   91.0160   85.1670 C   0  0  0  0  0  3  0  0  0  0  0  0
   96.4230   91.3140   84.0370 C   0  0  0  0  0  0  0  0  0  0  0  0
   96.0830   90.2760   83.1240 C   0  0  0  0  0  0  0  0  0  0  0  0
   96.5400   88.9760   83.3710 C   0  0  0  0  0  3  0  0  0  0  0  0
   97.2990   88.6850   84.5040 C   0  0  0  0  0  0  0  0  0  0  0  0
   97.7380   87.3800   84.7430 C   0  0  0  0  0  3  0  0  0  0  0  0
   95.3520   90.4720   81.9430 O   0  0  0  0  0  0  0  0  0  0  0  0
   94.1880   91.2820   81.8270 C   0  0  0  0  0  2  0  0  0  0  0  0
   94.5680   92.7120   81.4940 C   0  0  0  0  0  2  0  0  0  0  0  0
   94.2280   93.6410   82.6530 C   0  0  0  0  0  2  0  0  0  0  0  0
   94.7460   93.1030   83.9780 C   0  0  0  0  0  2  0  0  0  0  0  0
   96.0820   92.6490   83.8280 O   0  0  0  0  0  0  0  0  0  0  0  0
  101.0110   85.8290   85.0090 O   0  0  0  0  0  0  0  0  0  0  0  0
  100.2030   85.1710   85.7200 C   0  0  0  0  0  0  0  0  0  0  0  0
   98.9710   85.7610   86.1620 N   0  0  0  0  0  2  0  0  0  0  0  0
  100.5270   83.7850   86.1000 C   0  0  0  0  0  0  0  0  0  0  0  0
   99.6100   83.0270   86.8760 C   0  0  0  0  0  3  0  0  0  0  0  0
   99.8980   81.7010   87.2510 C   0  0  0  0  0  3  0  0  0  0  0  0
  101.1150   81.1790   86.8280 C   0  0  0  0  0  0  0  0  0  0  0  0
  101.6300   79.9620   87.0440 N   0  0  0  0  0  0  0  0  0  0  0  0
  102.7900   79.9880   86.4330 O   0  0  0  0  0  0  0  0  0  0  0  0
  103.0650   81.1250   85.8410 N   0  0  0  0  0  0  0  0  0  0  0  0
  101.9960   81.8930   86.0900 C   0  0  0  0  0  0  0  0  0  0  0  0
  101.7510   83.2050   85.6970 C   0  0  0  0  0  3  0  0  0  0  0  0
  1 19  1  0
  1  2  2  0
  3  2  1  0
  4  3  2  0
  5  4  1  0
  6  5  2  0
  7  8  2  0
  7  6  1  0
  8  9  1  0
  9 10  2  0
  9  4  1  0
 10  1  1  0
 11  7  1  0
 12 11  1  0
 13 12  1  0
 13 14  1  0
 14 15  1  0
 16 15  1  0
 16  6  1  0
 17 18  2  0
 18 20  1  0
 18 19  1  0
 20 21  1  0
 21 22  2  0
 23 24  2  0
 23 22  1  0
 25 24  1  0
 26 27  2  0
 26 25  1  0
 27 23  1  0
 28 27  1  0
 28 20  2  0
M  RAD  8   2   2   3   2   5   2   8   2  10   2  12   3  13   3  14   3
M  RAD  5  15   3  19   2  21   2  22   2  28   2
M  END
>  <MODEL>  (13) 
1

>  <TORSDO>  (13) 
F 2

>  <SCORE>  (13) 
-12.036

>  <ligand_id>  (13) 
22

>  <original_smiles>  (13) 
O=C(Nc1ccc2cc3c(cc2c1)OCCCCO3)c1ccc2nonc2c1

>  <smiles>  (13) 
O=C(Nc1ccc2cc3c(cc2c1)OCCCCO3)c1ccc2nonc2c1

$$$$
22:0
     RDKit          3D

 28 32  0  0  0  0  0  0  0  0999 V2000
   98.5030   87.0870   85.8840 C   0  0  0  0  0  0  0  0  0  0  0  0
   98.8220   88.1140   86.7790 C   0  0  0  0  0  3  0  0  0  0  0  0
   98.3870   89.4230   86.5460 C   0  0  0  0  0  3  0  0  0  0  0  0
   97.6250   89.7120   85.4130 C   0  0  0  0  0  0  0  0  0  0  0  0
   97.1940   91.0160   85.1670 C   0  0  0  0  0  3  0  0  0  0  0  0
   96.4230   91.3140   84.0370 C   0  0  0  0  0  0  0  0  0  0  0  0
   96.0830   90.2760   83.1240 C   0  0  0  0  0  0  0  0  0  0  0  0
   96.5400   88.9760   83.3710 C   0  0  0  0  0  3  0  0  0  0  0  0
   97.2990   88.6850   84.5040 C   0  0  0  0  0  0  0  0  0  0  0  0
   97.7380   87.3800   84.7430 C   0  0  0  0  0  3  0  0  0  0  0  0
   95.3520   90.4720   81.9430 O   0  0  0  0  0  0  0  0  0  0  0  0
   94.1880   91.2820   81.8270 C   0  0  0  0  0  2  0  0  0  0  0  0
   94.5680   92.7120   81.4940 C   0  0  0  0  0  2  0  0  0  0  0  0
   94.2280   93.6410   82.6530 C   0  0  0  0  0  2  0  0  0  0  0  0
   94.7460   93.1030   83.9780 C   0  0  0  0  0  2  0  0  0  0  0  0
   96.0820   92.6490   83.8280 O   0  0  0  0  0  0  0  0  0  0  0  0
  101.0110   85.8290   85.0090 O   0  0  0  0  0  0  0  0  0  0  0  0
  100.2030   85.1710   85.7200 C   0  0  0  0  0  0  0  0  0  0  0  0
   98.9710   85.7610   86.1620 N   0  0  0  0  0  2  0  0  0  0  0  0
  100.5270   83.7850   86.1000 C   0  0  0  0  0  0  0  0  0  0  0  0
   99.6100   83.0270   86.8760 C   0  0  0  0  0  3  0  0  0  0  0  0
   99.8980   81.7010   87.2510 C   0  0  0  0  0  3  0  0  0  0  0  0
  101.1150   81.1790   86.8280 C   0  0  0  0  0  0  0  0  0  0  0  0
  101.6300   79.9620   87.0440 N   0  0  0  0  0  0  0  0  0  0  0  0
  102.7900   79.9880   86.4330 O   0  0  0  0  0  0  0  0  0  0  0  0
  103.0650   81.1250   85.8410 N   0  0  0  0  0  0  0  0  0  0  0  0
  101.9960   81.8930   86.0900 C   0  0  0  0  0  0  0  0  0  0  0  0
  101.7510   83.2050   85.6970 C   0  0  0  0  0  3  0  0  0  0  0  0
  1 19  1  0
  1  2  2  0
  3  2  1  0
  4  3  2  0
  5  4  1  0
  6  5  2  0
  7  8  2  0
  7  6  1  0
  8  9  1  0
  9 10  2  0
  9  4  1  0
 10  1  1  0
 11  7  1  0
 12 11  1  0
 13 12  1  0
 13 14  1  0
 14 15  1  0
 16 15  1  0
 16  6  1  0
 17 18  2  0
 18 20  1  0
 18 19  1  0
 20 21  1  0
 21 22  2  0
 23 24  2  0
 23 22  1  0
 25 24  1  0
 26 27  2  0
 26 25  1  0
 27 23  1  0
 28 27  1  0
 28 20  2  0
M  RAD  8   2   2   3   2   5   2   8   2  10   2  12   3  13   3  14   3
M  RAD  5  15   3  19   2  21   2  22   2  28   2
M  END
>  <MODEL>  (14) 
1

>  <TORSDO>  (14) 
F 2

>  <SCORE>  (14) 
-12.036

>  <ligand_id>  (14) 
22

>  <original_smiles>  (14) 
O=C(Nc1ccc2cc3c(cc2c1)OCCCCO3)c1ccc2nonc2c1

>  <smiles>  (14) 
O=C(Nc1ccc2cc3c(cc2c1)OCCCCO3)c1ccc2nonc2c1

$$$$
22:0
     RDKit          3D

 28 32  0  0  0  0  0  0  0  0999 V2000
   98.5030   87.0870   85.8840 C   0  0  0  0  0  0  0  0  0  0  0  0
   98.8220   88.1140   86.7790 C   0  0  0  0  0  3  0  0  0  0  0  0
   98.3870   89.4230   86.5460 C   0  0  0  0  0  3  0  0  0  0  0  0
   97.6250   89.7120   85.4130 C   0  0  0  0  0  0  0  0  0  0  0  0
   97.1940   91.0160   85.1670 C   0  0  0  0  0  3  0  0  0  0  0  0
   96.4230   91.3140   84.0370 C   0  0  0  0  0  0  0  0  0  0  0  0
   96.0830   90.2760   83.1240 C   0  0  0  0  0  0  0  0  0  0  0  0
   96.5400   88.9760   83.3710 C   0  0  0  0  0  3  0  0  0  0  0  0
   97.2990   88.6850   84.5040 C   0  0  0  0  0  0  0  0  0  0  0  0
   97.7380   87.3800   84.7430 C   0  0  0  0  0  3  0  0  0  0  0  0
   95.3520   90.4720   81.9430 O   0  0  0  0  0  0  0  0  0  0  0  0
   94.1880   91.2820   81.8270 C   0  0  0  0  0  2  0  0  0  0  0  0
   94.5680   92.7120   81.4940 C   0  0  0  0  0  2  0  0  0  0  0  0
   94.2280   93.6410   82.6530 C   0  0  0  0  0  2  0  0  0  0  0  0
   94.7460   93.1030   83.9780 C   0  0  0  0  0  2  0  0  0  0  0  0
   96.0820   92.6490   83.8280 O   0  0  0  0  0  0  0  0  0  0  0  0
  101.0110   85.8290   85.0090 O   0  0  0  0  0  0  0  0  0  0  0  0
  100.2030   85.1710   85.7200 C   0  0  0  0  0  0  0  0  0  0  0  0
   98.9710   85.7610   86.1620 N   0  0  0  0  0  2  0  0  0  0  0  0
  100.5270   83.7850   86.1000 C   0  0  0  0  0  0  0  0  0  0  0  0
   99.6100   83.0270   86.8760 C   0  0  0  0  0  3  0  0  0  0  0  0
   99.8980   81.7010   87.2510 C   0  0  0  0  0  3  0  0  0  0  0  0
  101.1150   81.1790   86.8280 C   0  0  0  0  0  0  0  0  0  0  0  0
  101.6300   79.9620   87.0440 N   0  0  0  0  0  0  0  0  0  0  0  0
  102.7900   79.9880   86.4330 O   0  0  0  0  0  0  0  0  0  0  0  0
  103.0650   81.1250   85.8410 N   0  0  0  0  0  0  0  0  0  0  0  0
  101.9960   81.8930   86.0900 C   0  0  0  0  0  0  0  0  0  0  0  0
  101.7510   83.2050   85.6970 C   0  0  0  0  0  3  0  0  0  0  0  0
  1 19  1  0
  1  2  2  0
  3  2  1  0
  4  3  2  0
  5  4  1  0
  6  5  2  0
  7  8  2  0
  7  6  1  0
  8  9  1  0
  9 10  2  0
  9  4  1  0
 10  1  1  0
 11  7  1  0
 12 11  1  0
 13 12  1  0
 13 14  1  0
 14 15  1  0
 16 15  1  0
 16  6  1  0
 17 18  2  0
 18 20  1  0
 18 19  1  0
 20 21  1  0
 21 22  2  0
 23 24  2  0
 23 22  1  0
 25 24  1  0
 26 27  2  0
 26 25  1  0
 27 23  1  0
 28 27  1  0
 28 20  2  0
M  RAD  8   2   2   3   2   5   2   8   2  10   2  12   3  13   3  14   3
M  RAD  5  15   3  19   2  21   2  22   2  28   2
M  END
>  <MODEL>  (15) 
1

>  <TORSDO>  (15) 
F 2

>  <SCORE>  (15) 
-12.036

>  <ligand_id>  (15) 
22

>  <original_smiles>  (15) 
O=C(Nc1ccc2cc3c(cc2c1)OCCCCO3)c1ccc2nonc2c1

>  <smiles>  (15) 
O=C(Nc1ccc2cc3c(cc2c1)OCCCCO3)c1ccc2nonc2c1

$$$$
22:0
     RDKit          3D

 28 32  0  0  0  0  0  0  0  0999 V2000
   98.5030   87.0870   85.8840 C   0  0  0  0  0  0  0  0  0  0  0  0
   98.8220   88.1140   86.7790 C   0  0  0  0  0  3  0  0  0  0  0  0
   98.3870   89.4230   86.5460 C   0  0  0  0  0  3  0  0  0  0  0  0
   97.6250   89.7120   85.4130 C   0  0  0  0  0  0  0  0  0  0  0  0
   97.1940   91.0160   85.1670 C   0  0  0  0  0  3  0  0  0  0  0  0
   96.4230   91.3140   84.0370 C   0  0  0  0  0  0  0  0  0  0  0  0
   96.0830   90.2760   83.1240 C   0  0  0  0  0  0  0  0  0  0  0  0
   96.5400   88.9760   83.3710 C   0  0  0  0  0  3  0  0  0  0  0  0
   97.2990   88.6850   84.5040 C   0  0  0  0  0  0  0  0  0  0  0  0
   97.7380   87.3800   84.7430 C   0  0  0  0  0  3  0  0  0  0  0  0
   95.3520   90.4720   81.9430 O   0  0  0  0  0  0  0  0  0  0  0  0
   94.1880   91.2820   81.8270 C   0  0  0  0  0  2  0  0  0  0  0  0
   94.5680   92.7120   81.4940 C   0  0  0  0  0  2  0  0  0  0  0  0
   94.2280   93.6410   82.6530 C   0  0  0  0  0  2  0  0  0  0  0  0
   94.7460   93.1030   83.9780 C   0  0  0  0  0  2  0  0  0  0  0  0
   96.0820   92.6490   83.8280 O   0  0  0  0  0  0  0  0  0  0  0  0
  101.0110   85.8290   85.0090 O   0  0  0  0  0  0  0  0  0  0  0  0
  100.2030   85.1710   85.7200 C   0  0  0  0  0  0  0  0  0  0  0  0
   98.9710   85.7610   86.1620 N   0  0  0  0  0  2  0  0  0  0  0  0
  100.5270   83.7850   86.1000 C   0  0  0  0  0  0  0  0  0  0  0  0
   99.6100   83.0270   86.8760 C   0  0  0  0  0  3  0  0  0  0  0  0
   99.8980   81.7010   87.2510 C   0  0  0  0  0  3  0  0  0  0  0  0
  101.1150   81.1790   86.8280 C   0  0  0  0  0  0  0  0  0  0  0  0
  101.6300   79.9620   87.0440 N   0  0  0  0  0  0  0  0  0  0  0  0
  102.7900   79.9880   86.4330 O   0  0  0  0  0  0  0  0  0  0  0  0
  103.0650   81.1250   85.8410 N   0  0  0  0  0  0  0  0  0  0  0  0
  101.9960   81.8930   86.0900 C   0  0  0  0  0  0  0  0  0  0  0  0
  101.7510   83.2050   85.6970 C   0  0  0  0  0  3  0  0  0  0  0  0
  1 19  1  0
  1  2  2  0
  3  2  1  0
  4  3  2  0
  5  4  1  0
  6  5  2  0
  7  8  2  0
  7  6  1  0
  8  9  1  0
  9 10  2  0
  9  4  1  0
 10  1  1  0
 11  7  1  0
 12 11  1  0
 13 12  1  0
 13 14  1  0
 14 15  1  0
 16 15  1  0
 16  6  1  0
 17 18  2  0
 18 20  1  0
 18 19  1  0
 20 21  1  0
 21 22  2  0
 23 24  2  0
 23 22  1  0
 25 24  1  0
 26 27  2  0
 26 25  1  0
 27 23  1  0
 28 27  1  0
 28 20  2  0
M  RAD  8   2   2   3   2   5   2   8   2  10   2  12   3  13   3  14   3
M  RAD  5  15   3  19   2  21   2  22   2  28   2
M  END
>  <MODEL>  (16) 
1

>  <TORSDO>  (16) 
F 2

>  <SCORE>  (16) 
-12.036

>  <ligand_id>  (16) 
22

>  <original_smiles>  (16) 
O=C(Nc1ccc2cc3c(cc2c1)OCCCCO3)c1ccc2nonc2c1

>  <smiles>  (16) 
O=C(Nc1ccc2cc3c(cc2c1)OCCCCO3)c1ccc2nonc2c1

$$$$
22:0
     RDKit          3D

 28 32  0  0  0  0  0  0  0  0999 V2000
   98.5030   87.0870   85.8840 C   0  0  0  0  0  0  0  0  0  0  0  0
   98.8220   88.1140   86.7790 C   0  0  0  0  0  3  0  0  0  0  0  0
   98.3870   89.4230   86.5460 C   0  0  0  0  0  3  0  0  0  0  0  0
   97.6250   89.7120   85.4130 C   0  0  0  0  0  0  0  0  0  0  0  0
   97.1940   91.0160   85.1670 C   0  0  0  0  0  3  0  0  0  0  0  0
   96.4230   91.3140   84.0370 C   0  0  0  0  0  0  0  0  0  0  0  0
   96.0830   90.2760   83.1240 C   0  0  0  0  0  0  0  0  0  0  0  0
   96.5400   88.9760   83.3710 C   0  0  0  0  0  3  0  0  0  0  0  0
   97.2990   88.6850   84.5040 C   0  0  0  0  0  0  0  0  0  0  0  0
   97.7380   87.3800   84.7430 C   0  0  0  0  0  3  0  0  0  0  0  0
   95.3520   90.4720   81.9430 O   0  0  0  0  0  0  0  0  0  0  0  0
   94.1880   91.2820   81.8270 C   0  0  0  0  0  2  0  0  0  0  0  0
   94.5680   92.7120   81.4940 C   0  0  0  0  0  2  0  0  0  0  0  0
   94.2280   93.6410   82.6530 C   0  0  0  0  0  2  0  0  0  0  0  0
   94.7460   93.1030   83.9780 C   0  0  0  0  0  2  0  0  0  0  0  0
   96.0820   92.6490   83.8280 O   0  0  0  0  0  0  0  0  0  0  0  0
  101.0110   85.8290   85.0090 O   0  0  0  0  0  0  0  0  0  0  0  0
  100.2030   85.1710   85.7200 C   0  0  0  0  0  0  0  0  0  0  0  0
   98.9710   85.7610   86.1620 N   0  0  0  0  0  2  0  0  0  0  0  0
  100.5270   83.7850   86.1000 C   0  0  0  0  0  0  0  0  0  0  0  0
   99.6100   83.0270   86.8760 C   0  0  0  0  0  3  0  0  0  0  0  0
   99.8980   81.7010   87.2510 C   0  0  0  0  0  3  0  0  0  0  0  0
  101.1150   81.1790   86.8280 C   0  0  0  0  0  0  0  0  0  0  0  0
  101.6300   79.9620   87.0440 N   0  0  0  0  0  0  0  0  0  0  0  0
  102.7900   79.9880   86.4330 O   0  0  0  0  0  0  0  0  0  0  0  0
  103.0650   81.1250   85.8410 N   0  0  0  0  0  0  0  0  0  0  0  0
  101.9960   81.8930   86.0900 C   0  0  0  0  0  0  0  0  0  0  0  0
  101.7510   83.2050   85.6970 C   0  0  0  0  0  3  0  0  0  0  0  0
  1 19  1  0
  1  2  2  0
  3  2  1  0
  4  3  2  0
  5  4  1  0
  6  5  2  0
  7  8  2  0
  7  6  1  0
  8  9  1  0
  9 10  2  0
  9  4  1  0
 10  1  1  0
 11  7  1  0
 12 11  1  0
 13 12  1  0
 13 14  1  0
 14 15  1  0
 16 15  1  0
 16  6  1  0
 17 18  2  0
 18 20  1  0
 18 19  1  0
 20 21  1  0
 21 22  2  0
 23 24  2  0
 23 22  1  0
 25 24  1  0
 26 27  2  0
 26 25  1  0
 27 23  1  0
 28 27  1  0
 28 20  2  0
M  RAD  8   2   2   3   2   5   2   8   2  10   2  12   3  13   3  14   3
M  RAD  5  15   3  19   2  21   2  22   2  28   2
M  END
>  <MODEL>  (17) 
1

>  <TORSDO>  (17) 
F 2

>  <SCORE>  (17) 
-12.036

>  <ligand_id>  (17) 
22

>  <original_smiles>  (17) 
O=C(Nc1ccc2cc3c(cc2c1)OCCCCO3)c1ccc2nonc2c1

>  <smiles>  (17) 
O=C(Nc1ccc2cc3c(cc2c1)OCCCCO3)c1ccc2nonc2c1

$$$$
22:0
     RDKit          3D

 28 32  0  0  0  0  0  0  0  0999 V2000
   98.5030   87.0870   85.8840 C   0  0  0  0  0  0  0  0  0  0  0  0
   98.8220   88.1140   86.7790 C   0  0  0  0  0  3  0  0  0  0  0  0
   98.3870   89.4230   86.5460 C   0  0  0  0  0  3  0  0  0  0  0  0
   97.6250   89.7120   85.4130 C   0  0  0  0  0  0  0  0  0  0  0  0
   97.1940   91.0160   85.1670 C   0  0  0  0  0  3  0  0  0  0  0  0
   96.4230   91.3140   84.0370 C   0  0  0  0  0  0  0  0  0  0  0  0
   96.0830   90.2760   83.1240 C   0  0  0  0  0  0  0  0  0  0  0  0
   96.5400   88.9760   83.3710 C   0  0  0  0  0  3  0  0  0  0  0  0
   97.2990   88.6850   84.5040 C   0  0  0  0  0  0  0  0  0  0  0  0
   97.7380   87.3800   84.7430 C   0  0  0  0  0  3  0  0  0  0  0  0
   95.3520   90.4720   81.9430 O   0  0  0  0  0  0  0  0  0  0  0  0
   94.1880   91.2820   81.8270 C   0  0  0  0  0  2  0  0  0  0  0  0
   94.5680   92.7120   81.4940 C   0  0  0  0  0  2  0  0  0  0  0  0
   94.2280   93.6410   82.6530 C   0  0  0  0  0  2  0  0  0  0  0  0
   94.7460   93.1030   83.9780 C   0  0  0  0  0  2  0  0  0  0  0  0
   96.0820   92.6490   83.8280 O   0  0  0  0  0  0  0  0  0  0  0  0
  101.0110   85.8290   85.0090 O   0  0  0  0  0  0  0  0  0  0  0  0
  100.2030   85.1710   85.7200 C   0  0  0  0  0  0  0  0  0  0  0  0
   98.9710   85.7610   86.1620 N   0  0  0  0  0  2  0  0  0  0  0  0
  100.5270   83.7850   86.1000 C   0  0  0  0  0  0  0  0  0  0  0  0
   99.6100   83.0270   86.8760 C   0  0  0  0  0  3  0  0  0  0  0  0
   99.8980   81.7010   87.2510 C   0  0  0  0  0  3  0  0  0  0  0  0
  101.1150   81.1790   86.8280 C   0  0  0  0  0  0  0  0  0  0  0  0
  101.6300   79.9620   87.0440 N   0  0  0  0  0  0  0  0  0  0  0  0
  102.7900   79.9880   86.4330 O   0  0  0  0  0  0  0  0  0  0  0  0
  103.0650   81.1250   85.8410 N   0  0  0  0  0  0  0  0  0  0  0  0
  101.9960   81.8930   86.0900 C   0  0  0  0  0  0  0  0  0  0  0  0
  101.7510   83.2050   85.6970 C   0  0  0  0  0  3  0  0  0  0  0  0
  1 19  1  0
  1  2  2  0
  3  2  1  0
  4  3  2  0
  5  4  1  0
  6  5  2  0
  7  8  2  0
  7  6  1  0
  8  9  1  0
  9 10  2  0
  9  4  1  0
 10  1  1  0
 11  7  1  0
 12 11  1  0
 13 12  1  0
 13 14  1  0
 14 15  1  0
 16 15  1  0
 16  6  1  0
 17 18  2  0
 18 20  1  0
 18 19  1  0
 20 21  1  0
 21 22  2  0
 23 24  2  0
 23 22  1  0
 25 24  1  0
 26 27  2  0
 26 25  1  0
 27 23  1  0
 28 27  1  0
 28 20  2  0
M  RAD  8   2   2   3   2   5   2   8   2  10   2  12   3  13   3  14   3
M  RAD  5  15   3  19   2  21   2  22   2  28   2
M  END
>  <MODEL>  (18) 
1

>  <TORSDO>  (18) 
F 2

>  <SCORE>  (18) 
-12.036

>  <ligand_id>  (18) 
22

>  <original_smiles>  (18) 
O=C(Nc1ccc2cc3c(cc2c1)OCCCCO3)c1ccc2nonc2c1

>  <smiles>  (18) 
O=C(Nc1ccc2cc3c(cc2c1)OCCCCO3)c1ccc2nonc2c1

$$$$
22:0
     RDKit          3D

 28 32  0  0  0  0  0  0  0  0999 V2000
   98.5030   87.0870   85.8840 C   0  0  0  0  0  0  0  0  0  0  0  0
   98.8220   88.1140   86.7790 C   0  0  0  0  0  3  0  0  0  0  0  0
   98.3870   89.4230   86.5460 C   0  0  0  0  0  3  0  0  0  0  0  0
   97.6250   89.7120   85.4130 C   0  0  0  0  0  0  0  0  0  0  0  0
   97.1940   91.0160   85.1670 C   0  0  0  0  0  3  0  0  0  0  0  0
   96.4230   91.3140   84.0370 C   0  0  0  0  0  0  0  0  0  0  0  0
   96.0830   90.2760   83.1240 C   0  0  0  0  0  0  0  0  0  0  0  0
   96.5400   88.9760   83.3710 C   0  0  0  0  0  3  0  0  0  0  0  0
   97.2990   88.6850   84.5040 C   0  0  0  0  0  0  0  0  0  0  0  0
   97.7380   87.3800   84.7430 C   0  0  0  0  0  3  0  0  0  0  0  0
   95.3520   90.4720   81.9430 O   0  0  0  0  0  0  0  0  0  0  0  0
   94.1880   91.2820   81.8270 C   0  0  0  0  0  2  0  0  0  0  0  0
   94.5680   92.7120   81.4940 C   0  0  0  0  0  2  0  0  0  0  0  0
   94.2280   93.6410   82.6530 C   0  0  0  0  0  2  0  0  0  0  0  0
   94.7460   93.1030   83.9780 C   0  0  0  0  0  2  0  0  0  0  0  0
   96.0820   92.6490   83.8280 O   0  0  0  0  0  0  0  0  0  0  0  0
  101.0110   85.8290   85.0090 O   0  0  0  0  0  0  0  0  0  0  0  0
  100.2030   85.1710   85.7200 C   0  0  0  0  0  0  0  0  0  0  0  0
   98.9710   85.7610   86.1620 N   0  0  0  0  0  2  0  0  0  0  0  0
  100.5270   83.7850   86.1000 C   0  0  0  0  0  0  0  0  0  0  0  0
   99.6100   83.0270   86.8760 C   0  0  0  0  0  3  0  0  0  0  0  0
   99.8980   81.7010   87.2510 C   0  0  0  0  0  3  0  0  0  0  0  0
  101.1150   81.1790   86.8280 C   0  0  0  0  0  0  0  0  0  0  0  0
  101.6300   79.9620   87.0440 N   0  0  0  0  0  0  0  0  0  0  0  0
  102.7900   79.9880   86.4330 O   0  0  0  0  0  0  0  0  0  0  0  0
  103.0650   81.1250   85.8410 N   0  0  0  0  0  0  0  0  0  0  0  0
  101.9960   81.8930   86.0900 C   0  0  0  0  0  0  0  0  0  0  0  0
  101.7510   83.2050   85.6970 C   0  0  0  0  0  3  0  0  0  0  0  0
  1 19  1  0
  1  2  2  0
  3  2  1  0
  4  3  2  0
  5  4  1  0
  6  5  2  0
  7  8  2  0
  7  6  1  0
  8  9  1  0
  9 10  2  0
  9  4  1  0
 10  1  1  0
 11  7  1  0
 12 11  1  0
 13 12  1  0
 13 14  1  0
 14 15  1  0
 16 15  1  0
 16  6  1  0
 17 18  2  0
 18 20  1  0
 18 19  1  0
 20 21  1  0
 21 22  2  0
 23 24  2  0
 23 22  1  0
 25 24  1  0
 26 27  2  0
 26 25  1  0
 27 23  1  0
 28 27  1  0
 28 20  2  0
M  RAD  8   2   2   3   2   5   2   8   2  10   2  12   3  13   3  14   3
M  RAD  5  15   3  19   2  21   2  22   2  28   2
M  END
>  <MODEL>  (19) 
1

>  <TORSDO>  (19) 
F 2

>  <SCORE>  (19) 
-12.036

>  <ligand_id>  (19) 
22

>  <original_smiles>  (19) 
O=C(Nc1ccc2cc3c(cc2c1)OCCCCO3)c1ccc2nonc2c1

>  <smiles>  (19) 
O=C(Nc1ccc2cc3c(cc2c1)OCCCCO3)c1ccc2nonc2c1

$$$$
22:0
     RDKit          3D

 28 32  0  0  0  0  0  0  0  0999 V2000
   98.5030   87.0870   85.8840 C   0  0  0  0  0  0  0  0  0  0  0  0
   98.8220   88.1140   86.7790 C   0  0  0  0  0  3  0  0  0  0  0  0
   98.3870   89.4230   86.5460 C   0  0  0  0  0  3  0  0  0  0  0  0
   97.6250   89.7120   85.4130 C   0  0  0  0  0  0  0  0  0  0  0  0
   97.1940   91.0160   85.1670 C   0  0  0  0  0  3  0  0  0  0  0  0
   96.4230   91.3140   84.0370 C   0  0  0  0  0  0  0  0  0  0  0  0
   96.0830   90.2760   83.1240 C   0  0  0  0  0  0  0  0  0  0  0  0
   96.5400   88.9760   83.3710 C   0  0  0  0  0  3  0  0  0  0  0  0
   97.2990   88.6850   84.5040 C   0  0  0  0  0  0  0  0  0  0  0  0
   97.7380   87.3800   84.7430 C   0  0  0  0  0  3  0  0  0  0  0  0
   95.3520   90.4720   81.9430 O   0  0  0  0  0  0  0  0  0  0  0  0
   94.1880   91.2820   81.8270 C   0  0  0  0  0  2  0  0  0  0  0  0
   94.5680   92.7120   81.4940 C   0  0  0  0  0  2  0  0  0  0  0  0
   94.2280   93.6410   82.6530 C   0  0  0  0  0  2  0  0  0  0  0  0
   94.7460   93.1030   83.9780 C   0  0  0  0  0  2  0  0  0  0  0  0
   96.0820   92.6490   83.8280 O   0  0  0  0  0  0  0  0  0  0  0  0
  101.0110   85.8290   85.0090 O   0  0  0  0  0  0  0  0  0  0  0  0
  100.2030   85.1710   85.7200 C   0  0  0  0  0  0  0  0  0  0  0  0
   98.9710   85.7610   86.1620 N   0  0  0  0  0  2  0  0  0  0  0  0
  100.5270   83.7850   86.1000 C   0  0  0  0  0  0  0  0  0  0  0  0
   99.6100   83.0270   86.8760 C   0  0  0  0  0  3  0  0  0  0  0  0
   99.8980   81.7010   87.2510 C   0  0  0  0  0  3  0  0  0  0  0  0
  101.1150   81.1790   86.8280 C   0  0  0  0  0  0  0  0  0  0  0  0
  101.6300   79.9620   87.0440 N   0  0  0  0  0  0  0  0  0  0  0  0
  102.7900   79.9880   86.4330 O   0  0  0  0  0  0  0  0  0  0  0  0
  103.0650   81.1250   85.8410 N   0  0  0  0  0  0  0  0  0  0  0  0
  101.9960   81.8930   86.0900 C   0  0  0  0  0  0  0  0  0  0  0  0
  101.7510   83.2050   85.6970 C   0  0  0  0  0  3  0  0  0  0  0  0
  1 19  1  0
  1  2  2  0
  3  2  1  0
  4  3  2  0
  5  4  1  0
  6  5  2  0
  7  8  2  0
  7  6  1  0
  8  9  1  0
  9 10  2  0
  9  4  1  0
 10  1  1  0
 11  7  1  0
 12 11  1  0
 13 12  1  0
 13 14  1  0
 14 15  1  0
 16 15  1  0
 16  6  1  0
 17 18  2  0
 18 20  1  0
 18 19  1  0
 20 21  1  0
 21 22  2  0
 23 24  2  0
 23 22  1  0
 25 24  1  0
 26 27  2  0
 26 25  1  0
 27 23  1  0
 28 27  1  0
 28 20  2  0
M  RAD  8   2   2   3   2   5   2   8   2  10   2  12   3  13   3  14   3
M  RAD  5  15   3  19   2  21   2  22   2  28   2
M  END
>  <MODEL>  (20) 
1

>  <TORSDO>  (20) 
F 2

>  <SCORE>  (20) 
-12.036

>  <ligand_id>  (20) 
22

>  <original_smiles>  (20) 
O=C(Nc1ccc2cc3c(cc2c1)OCCCCO3)c1ccc2nonc2c1

>  <smiles>  (20) 
O=C(Nc1ccc2cc3c(cc2c1)OCCCCO3)c1ccc2nonc2c1

$$$$
22:0
     RDKit          3D

 28 32  0  0  0  0  0  0  0  0999 V2000
   98.5030   87.0870   85.8840 C   0  0  0  0  0  0  0  0  0  0  0  0
   98.8220   88.1140   86.7790 C   0  0  0  0  0  3  0  0  0  0  0  0
   98.3870   89.4230   86.5460 C   0  0  0  0  0  3  0  0  0  0  0  0
   97.6250   89.7120   85.4130 C   0  0  0  0  0  0  0  0  0  0  0  0
   97.1940   91.0160   85.1670 C   0  0  0  0  0  3  0  0  0  0  0  0
   96.4230   91.3140   84.0370 C   0  0  0  0  0  0  0  0  0  0  0  0
   96.0830   90.2760   83.1240 C   0  0  0  0  0  0  0  0  0  0  0  0
   96.5400   88.9760   83.3710 C   0  0  0  0  0  3  0  0  0  0  0  0
   97.2990   88.6850   84.5040 C   0  0  0  0  0  0  0  0  0  0  0  0
   97.7380   87.3800   84.7430 C   0  0  0  0  0  3  0  0  0  0  0  0
   95.3520   90.4720   81.9430 O   0  0  0  0  0  0  0  0  0  0  0  0
   94.1880   91.2820   81.8270 C   0  0  0  0  0  2  0  0  0  0  0  0
   94.5680   92.7120   81.4940 C   0  0  0  0  0  2  0  0  0  0  0  0
   94.2280   93.6410   82.6530 C   0  0  0  0  0  2  0  0  0  0  0  0
   94.7460   93.1030   83.9780 C   0  0  0  0  0  2  0  0  0  0  0  0
   96.0820   92.6490   83.8280 O   0  0  0  0  0  0  0  0  0  0  0  0
  101.0110   85.8290   85.0090 O   0  0  0  0  0  0  0  0  0  0  0  0
  100.2030   85.1710   85.7200 C   0  0  0  0  0  0  0  0  0  0  0  0
   98.9710   85.7610   86.1620 N   0  0  0  0  0  2  0  0  0  0  0  0
  100.5270   83.7850   86.1000 C   0  0  0  0  0  0  0  0  0  0  0  0
   99.6100   83.0270   86.8760 C   0  0  0  0  0  3  0  0  0  0  0  0
   99.8980   81.7010   87.2510 C   0  0  0  0  0  3  0  0  0  0  0  0
  101.1150   81.1790   86.8280 C   0  0  0  0  0  0  0  0  0  0  0  0
  101.6300   79.9620   87.0440 N   0  0  0  0  0  0  0  0  0  0  0  0
  102.7900   79.9880   86.4330 O   0  0  0  0  0  0  0  0  0  0  0  0
  103.0650   81.1250   85.8410 N   0  0  0  0  0  0  0  0  0  0  0  0
  101.9960   81.8930   86.0900 C   0  0  0  0  0  0  0  0  0  0  0  0
  101.7510   83.2050   85.6970 C   0  0  0  0  0  3  0  0  0  0  0  0
  1 19  1  0
  1  2  2  0
  3  2  1  0
  4  3  2  0
  5  4  1  0
  6  5  2  0
  7  8  2  0
  7  6  1  0
  8  9  1  0
  9 10  2  0
  9  4  1  0
 10  1  1  0
 11  7  1  0
 12 11  1  0
 13 12  1  0
 13 14  1  0
 14 15  1  0
 16 15  1  0
 16  6  1  0
 17 18  2  0
 18 20  1  0
 18 19  1  0
 20 21  1  0
 21 22  2  0
 23 24  2  0
 23 22  1  0
 25 24  1  0
 26 27  2  0
 26 25  1  0
 27 23  1  0
 28 27  1  0
 28 20  2  0
M  RAD  8   2   2   3   2   5   2   8   2  10   2  12   3  13   3  14   3
M  RAD  5  15   3  19   2  21   2  22   2  28   2
M  END
>  <MODEL>  (21) 
1

>  <TORSDO>  (21) 
F 2

>  <SCORE>  (21) 
-12.036

>  <ligand_id>  (21) 
22

>  <original_smiles>  (21) 
O=C(Nc1ccc2cc3c(cc2c1)OCCCCO3)c1ccc2nonc2c1

>  <smiles>  (21) 
O=C(Nc1ccc2cc3c(cc2c1)OCCCCO3)c1ccc2nonc2c1

$$$$
22:0
     RDKit          3D

 28 32  0  0  0  0  0  0  0  0999 V2000
   98.5030   87.0870   85.8840 C   0  0  0  0  0  0  0  0  0  0  0  0
   98.8220   88.1140   86.7790 C   0  0  0  0  0  3  0  0  0  0  0  0
   98.3870   89.4230   86.5460 C   0  0  0  0  0  3  0  0  0  0  0  0
   97.6250   89.7120   85.4130 C   0  0  0  0  0  0  0  0  0  0  0  0
   97.1940   91.0160   85.1670 C   0  0  0  0  0  3  0  0  0  0  0  0
   96.4230   91.3140   84.0370 C   0  0  0  0  0  0  0  0  0  0  0  0
   96.0830   90.2760   83.1240 C   0  0  0  0  0  0  0  0  0  0  0  0
   96.5400   88.9760   83.3710 C   0  0  0  0  0  3  0  0  0  0  0  0
   97.2990   88.6850   84.5040 C   0  0  0  0  0  0  0  0  0  0  0  0
   97.7380   87.3800   84.7430 C   0  0  0  0  0  3  0  0  0  0  0  0
   95.3520   90.4720   81.9430 O   0  0  0  0  0  0  0  0  0  0  0  0
   94.1880   91.2820   81.8270 C   0  0  0  0  0  2  0  0  0  0  0  0
   94.5680   92.7120   81.4940 C   0  0  0  0  0  2  0  0  0  0  0  0
   94.2280   93.6410   82.6530 C   0  0  0  0  0  2  0  0  0  0  0  0
   94.7460   93.1030   83.9780 C   0  0  0  0  0  2  0  0  0  0  0  0
   96.0820   92.6490   83.8280 O   0  0  0  0  0  0  0  0  0  0  0  0
  101.0110   85.8290   85.0090 O   0  0  0  0  0  0  0  0  0  0  0  0
  100.2030   85.1710   85.7200 C   0  0  0  0  0  0  0  0  0  0  0  0
   98.9710   85.7610   86.1620 N   0  0  0  0  0  2  0  0  0  0  0  0
  100.5270   83.7850   86.1000 C   0  0  0  0  0  0  0  0  0  0  0  0
   99.6100   83.0270   86.8760 C   0  0  0  0  0  3  0  0  0  0  0  0
   99.8980   81.7010   87.2510 C   0  0  0  0  0  3  0  0  0  0  0  0
  101.1150   81.1790   86.8280 C   0  0  0  0  0  0  0  0  0  0  0  0
  101.6300   79.9620   87.0440 N   0  0  0  0  0  0  0  0  0  0  0  0
  102.7900   79.9880   86.4330 O   0  0  0  0  0  0  0  0  0  0  0  0
  103.0650   81.1250   85.8410 N   0  0  0  0  0  0  0  0  0  0  0  0
  101.9960   81.8930   86.0900 C   0  0  0  0  0  0  0  0  0  0  0  0
  101.7510   83.2050   85.6970 C   0  0  0  0  0  3  0  0  0  0  0  0
  1 19  1  0
  1  2  2  0
  3  2  1  0
  4  3  2  0
  5  4  1  0
  6  5  2  0
  7  8  2  0
  7  6  1  0
  8  9  1  0
  9 10  2  0
  9  4  1  0
 10  1  1  0
 11  7  1  0
 12 11  1  0
 13 12  1  0
 13 14  1  0
 14 15  1  0
 16 15  1  0
 16  6  1  0
 17 18  2  0
 18 20  1  0
 18 19  1  0
 20 21  1  0
 21 22  2  0
 23 24  2  0
 23 22  1  0
 25 24  1  0
 26 27  2  0
 26 25  1  0
 27 23  1  0
 28 27  1  0
 28 20  2  0
M  RAD  8   2   2   3   2   5   2   8   2  10   2  12   3  13   3  14   3
M  RAD  5  15   3  19   2  21   2  22   2  28   2
M  END
>  <MODEL>  (22) 
1

>  <TORSDO>  (22) 
F 2

>  <SCORE>  (22) 
-12.036

>  <ligand_id>  (22) 
22

>  <original_smiles>  (22) 
O=C(Nc1ccc2cc3c(cc2c1)OCCCCO3)c1ccc2nonc2c1

>  <smiles>  (22) 
O=C(Nc1ccc2cc3c(cc2c1)OCCCCO3)c1ccc2nonc2c1

$$$$
22:0
     RDKit          3D

 28 32  0  0  0  0  0  0  0  0999 V2000
   98.5030   87.0870   85.8840 C   0  0  0  0  0  0  0  0  0  0  0  0
   98.8220   88.1140   86.7790 C   0  0  0  0  0  3  0  0  0  0  0  0
   98.3870   89.4230   86.5460 C   0  0  0  0  0  3  0  0  0  0  0  0
   97.6250   89.7120   85.4130 C   0  0  0  0  0  0  0  0  0  0  0  0
   97.1940   91.0160   85.1670 C   0  0  0  0  0  3  0  0  0  0  0  0
   96.4230   91.3140   84.0370 C   0  0  0  0  0  0  0  0  0  0  0  0
   96.0830   90.2760   83.1240 C   0  0  0  0  0  0  0  0  0  0  0  0
   96.5400   88.9760   83.3710 C   0  0  0  0  0  3  0  0  0  0  0  0
   97.2990   88.6850   84.5040 C   0  0  0  0  0  0  0  0  0  0  0  0
   97.7380   87.3800   84.7430 C   0  0  0  0  0  3  0  0  0  0  0  0
   95.3520   90.4720   81.9430 O   0  0  0  0  0  0  0  0  0  0  0  0
   94.1880   91.2820   81.8270 C   0  0  0  0  0  2  0  0  0  0  0  0
   94.5680   92.7120   81.4940 C   0  0  0  0  0  2  0  0  0  0  0  0
   94.2280   93.6410   82.6530 C   0  0  0  0  0  2  0  0  0  0  0  0
   94.7460   93.1030   83.9780 C   0  0  0  0  0  2  0  0  0  0  0  0
   96.0820   92.6490   83.8280 O   0  0  0  0  0  0  0  0  0  0  0  0
  101.0110   85.8290   85.0090 O   0  0  0  0  0  0  0  0  0  0  0  0
  100.2030   85.1710   85.7200 C   0  0  0  0  0  0  0  0  0  0  0  0
   98.9710   85.7610   86.1620 N   0  0  0  0  0  2  0  0  0  0  0  0
  100.5270   83.7850   86.1000 C   0  0  0  0  0  0  0  0  0  0  0  0
   99.6100   83.0270   86.8760 C   0  0  0  0  0  3  0  0  0  0  0  0
   99.8980   81.7010   87.2510 C   0  0  0  0  0  3  0  0  0  0  0  0
  101.1150   81.1790   86.8280 C   0  0  0  0  0  0  0  0  0  0  0  0
  101.6300   79.9620   87.0440 N   0  0  0  0  0  0  0  0  0  0  0  0
  102.7900   79.9880   86.4330 O   0  0  0  0  0  0  0  0  0  0  0  0
  103.0650   81.1250   85.8410 N   0  0  0  0  0  0  0  0  0  0  0  0
  101.9960   81.8930   86.0900 C   0  0  0  0  0  0  0  0  0  0  0  0
  101.7510   83.2050   85.6970 C   0  0  0  0  0  3  0  0  0  0  0  0
  1 19  1  0
  1  2  2  0
  3  2  1  0
  4  3  2  0
  5  4  1  0
  6  5  2  0
  7  8  2  0
  7  6  1  0
  8  9  1  0
  9 10  2  0
  9  4  1  0
 10  1  1  0
 11  7  1  0
 12 11  1  0
 13 12  1  0
 13 14  1  0
 14 15  1  0
 16 15  1  0
 16  6  1  0
 17 18  2  0
 18 20  1  0
 18 19  1  0
 20 21  1  0
 21 22  2  0
 23 24  2  0
 23 22  1  0
 25 24  1  0
 26 27  2  0
 26 25  1  0
 27 23  1  0
 28 27  1  0
 28 20  2  0
M  RAD  8   2   2   3   2   5   2   8   2  10   2  12   3  13   3  14   3
M  RAD  5  15   3  19   2  21   2  22   2  28   2
M  END
>  <MODEL>  (23) 
1

>  <TORSDO>  (23) 
F 2

>  <SCORE>  (23) 
-12.036

>  <ligand_id>  (23) 
22

>  <original_smiles>  (23) 
O=C(Nc1ccc2cc3c(cc2c1)OCCCCO3)c1ccc2nonc2c1

>  <smiles>  (23) 
O=C(Nc1ccc2cc3c(cc2c1)OCCCCO3)c1ccc2nonc2c1

$$$$
22:0
     RDKit          3D

 28 32  0  0  0  0  0  0  0  0999 V2000
   98.5030   87.0870   85.8840 C   0  0  0  0  0  0  0  0  0  0  0  0
   98.8220   88.1140   86.7790 C   0  0  0  0  0  3  0  0  0  0  0  0
   98.3870   89.4230   86.5460 C   0  0  0  0  0  3  0  0  0  0  0  0
   97.6250   89.7120   85.4130 C   0  0  0  0  0  0  0  0  0  0  0  0
   97.1940   91.0160   85.1670 C   0  0  0  0  0  3  0  0  0  0  0  0
   96.4230   91.3140   84.0370 C   0  0  0  0  0  0  0  0  0  0  0  0
   96.0830   90.2760   83.1240 C   0  0  0  0  0  0  0  0  0  0  0  0
   96.5400   88.9760   83.3710 C   0  0  0  0  0  3  0  0  0  0  0  0
   97.2990   88.6850   84.5040 C   0  0  0  0  0  0  0  0  0  0  0  0
   97.7380   87.3800   84.7430 C   0  0  0  0  0  3  0  0  0  0  0  0
   95.3520   90.4720   81.9430 O   0  0  0  0  0  0  0  0  0  0  0  0
   94.1880   91.2820   81.8270 C   0  0  0  0  0  2  0  0  0  0  0  0
   94.5680   92.7120   81.4940 C   0  0  0  0  0  2  0  0  0  0  0  0
   94.2280   93.6410   82.6530 C   0  0  0  0  0  2  0  0  0  0  0  0
   94.7460   93.1030   83.9780 C   0  0  0  0  0  2  0  0  0  0  0  0
   96.0820   92.6490   83.8280 O   0  0  0  0  0  0  0  0  0  0  0  0
  101.0110   85.8290   85.0090 O   0  0  0  0  0  0  0  0  0  0  0  0
  100.2030   85.1710   85.7200 C   0  0  0  0  0  0  0  0  0  0  0  0
   98.9710   85.7610   86.1620 N   0  0  0  0  0  2  0  0  0  0  0  0
  100.5270   83.7850   86.1000 C   0  0  0  0  0  0  0  0  0  0  0  0
   99.6100   83.0270   86.8760 C   0  0  0  0  0  3  0  0  0  0  0  0
   99.8980   81.7010   87.2510 C   0  0  0  0  0  3  0  0  0  0  0  0
  101.1150   81.1790   86.8280 C   0  0  0  0  0  0  0  0  0  0  0  0
  101.6300   79.9620   87.0440 N   0  0  0  0  0  0  0  0  0  0  0  0
  102.7900   79.9880   86.4330 O   0  0  0  0  0  0  0  0  0  0  0  0
  103.0650   81.1250   85.8410 N   0  0  0  0  0  0  0  0  0  0  0  0
  101.9960   81.8930   86.0900 C   0  0  0  0  0  0  0  0  0  0  0  0
  101.7510   83.2050   85.6970 C   0  0  0  0  0  3  0  0  0  0  0  0
  1 19  1  0
  1  2  2  0
  3  2  1  0
  4  3  2  0
  5  4  1  0
  6  5  2  0
  7  8  2  0
  7  6  1  0
  8  9  1  0
  9 10  2  0
  9  4  1  0
 10  1  1  0
 11  7  1  0
 12 11  1  0
 13 12  1  0
 13 14  1  0
 14 15  1  0
 16 15  1  0
 16  6  1  0
 17 18  2  0
 18 20  1  0
 18 19  1  0
 20 21  1  0
 21 22  2  0
 23 24  2  0
 23 22  1  0
 25 24  1  0
 26 27  2  0
 26 25  1  0
 27 23  1  0
 28 27  1  0
 28 20  2  0
M  RAD  8   2   2   3   2   5   2   8   2  10   2  12   3  13   3  14   3
M  RAD  5  15   3  19   2  21   2  22   2  28   2
M  END
>  <MODEL>  (24) 
1

>  <TORSDO>  (24) 
F 2

>  <SCORE>  (24) 
-12.036

>  <ligand_id>  (24) 
22

>  <original_smiles>  (24) 
O=C(Nc1ccc2cc3c(cc2c1)OCCCCO3)c1ccc2nonc2c1

>  <smiles>  (24) 
O=C(Nc1ccc2cc3c(cc2c1)OCCCCO3)c1ccc2nonc2c1

$$$$
22:0
     RDKit          3D

 28 32  0  0  0  0  0  0  0  0999 V2000
   98.5030   87.0870   85.8840 C   0  0  0  0  0  0  0  0  0  0  0  0
   98.8220   88.1140   86.7790 C   0  0  0  0  0  3  0  0  0  0  0  0
   98.3870   89.4230   86.5460 C   0  0  0  0  0  3  0  0  0  0  0  0
   97.6250   89.7120   85.4130 C   0  0  0  0  0  0  0  0  0  0  0  0
   97.1940   91.0160   85.1670 C   0  0  0  0  0  3  0  0  0  0  0  0
   96.4230   91.3140   84.0370 C   0  0  0  0  0  0  0  0  0  0  0  0
   96.0830   90.2760   83.1240 C   0  0  0  0  0  0  0  0  0  0  0  0
   96.5400   88.9760   83.3710 C   0  0  0  0  0  3  0  0  0  0  0  0
   97.2990   88.6850   84.5040 C   0  0  0  0  0  0  0  0  0  0  0  0
   97.7380   87.3800   84.7430 C   0  0  0  0  0  3  0  0  0  0  0  0
   95.3520   90.4720   81.9430 O   0  0  0  0  0  0  0  0  0  0  0  0
   94.1880   91.2820   81.8270 C   0  0  0  0  0  2  0  0  0  0  0  0
   94.5680   92.7120   81.4940 C   0  0  0  0  0  2  0  0  0  0  0  0
   94.2280   93.6410   82.6530 C   0  0  0  0  0  2  0  0  0  0  0  0
   94.7460   93.1030   83.9780 C   0  0  0  0  0  2  0  0  0  0  0  0
   96.0820   92.6490   83.8280 O   0  0  0  0  0  0  0  0  0  0  0  0
  101.0110   85.8290   85.0090 O   0  0  0  0  0  0  0  0  0  0  0  0
  100.2030   85.1710   85.7200 C   0  0  0  0  0  0  0  0  0  0  0  0
   98.9710   85.7610   86.1620 N   0  0  0  0  0  2  0  0  0  0  0  0
  100.5270   83.7850   86.1000 C   0  0  0  0  0  0  0  0  0  0  0  0
   99.6100   83.0270   86.8760 C   0  0  0  0  0  3  0  0  0  0  0  0
   99.8980   81.7010   87.2510 C   0  0  0  0  0  3  0  0  0  0  0  0
  101.1150   81.1790   86.8280 C   0  0  0  0  0  0  0  0  0  0  0  0
  101.6300   79.9620   87.0440 N   0  0  0  0  0  0  0  0  0  0  0  0
  102.7900   79.9880   86.4330 O   0  0  0  0  0  0  0  0  0  0  0  0
  103.0650   81.1250   85.8410 N   0  0  0  0  0  0  0  0  0  0  0  0
  101.9960   81.8930   86.0900 C   0  0  0  0  0  0  0  0  0  0  0  0
  101.7510   83.2050   85.6970 C   0  0  0  0  0  3  0  0  0  0  0  0
  1 19  1  0
  1  2  2  0
  3  2  1  0
  4  3  2  0
  5  4  1  0
  6  5  2  0
  7  8  2  0
  7  6  1  0
  8  9  1  0
  9 10  2  0
  9  4  1  0
 10  1  1  0
 11  7  1  0
 12 11  1  0
 13 12  1  0
 13 14  1  0
 14 15  1  0
 16 15  1  0
 16  6  1  0
 17 18  2  0
 18 20  1  0
 18 19  1  0
 20 21  1  0
 21 22  2  0
 23 24  2  0
 23 22  1  0
 25 24  1  0
 26 27  2  0
 26 25  1  0
 27 23  1  0
 28 27  1  0
 28 20  2  0
M  RAD  8   2   2   3   2   5   2   8   2  10   2  12   3  13   3  14   3
M  RAD  5  15   3  19   2  21   2  22   2  28   2
M  END
>  <MODEL>  (25) 
1

>  <TORSDO>  (25) 
F 2

>  <SCORE>  (25) 
-12.036

>  <ligand_id>  (25) 
22

>  <original_smiles>  (25) 
O=C(Nc1ccc2cc3c(cc2c1)OCCCCO3)c1ccc2nonc2c1

>  <smiles>  (25) 
O=C(Nc1ccc2cc3c(cc2c1)OCCCCO3)c1ccc2nonc2c1

$$$$
22:0
     RDKit          3D

 28 32  0  0  0  0  0  0  0  0999 V2000
   98.5030   87.0870   85.8840 C   0  0  0  0  0  0  0  0  0  0  0  0
   98.8220   88.1140   86.7790 C   0  0  0  0  0  3  0  0  0  0  0  0
   98.3870   89.4230   86.5460 C   0  0  0  0  0  3  0  0  0  0  0  0
   97.6250   89.7120   85.4130 C   0  0  0  0  0  0  0  0  0  0  0  0
   97.1940   91.0160   85.1670 C   0  0  0  0  0  3  0  0  0  0  0  0
   96.4230   91.3140   84.0370 C   0  0  0  0  0  0  0  0  0  0  0  0
   96.0830   90.2760   83.1240 C   0  0  0  0  0  0  0  0  0  0  0  0
   96.5400   88.9760   83.3710 C   0  0  0  0  0  3  0  0  0  0  0  0
   97.2990   88.6850   84.5040 C   0  0  0  0  0  0  0  0  0  0  0  0
   97.7380   87.3800   84.7430 C   0  0  0  0  0  3  0  0  0  0  0  0
   95.3520   90.4720   81.9430 O   0  0  0  0  0  0  0  0  0  0  0  0
   94.1880   91.2820   81.8270 C   0  0  0  0  0  2  0  0  0  0  0  0
   94.5680   92.7120   81.4940 C   0  0  0  0  0  2  0  0  0  0  0  0
   94.2280   93.6410   82.6530 C   0  0  0  0  0  2  0  0  0  0  0  0
   94.7460   93.1030   83.9780 C   0  0  0  0  0  2  0  0  0  0  0  0
   96.0820   92.6490   83.8280 O   0  0  0  0  0  0  0  0  0  0  0  0
  101.0110   85.8290   85.0090 O   0  0  0  0  0  0  0  0  0  0  0  0
  100.2030   85.1710   85.7200 C   0  0  0  0  0  0  0  0  0  0  0  0
   98.9710   85.7610   86.1620 N   0  0  0  0  0  2  0  0  0  0  0  0
  100.5270   83.7850   86.1000 C   0  0  0  0  0  0  0  0  0  0  0  0
   99.6100   83.0270   86.8760 C   0  0  0  0  0  3  0  0  0  0  0  0
   99.8980   81.7010   87.2510 C   0  0  0  0  0  3  0  0  0  0  0  0
  101.1150   81.1790   86.8280 C   0  0  0  0  0  0  0  0  0  0  0  0
  101.6300   79.9620   87.0440 N   0  0  0  0  0  0  0  0  0  0  0  0
  102.7900   79.9880   86.4330 O   0  0  0  0  0  0  0  0  0  0  0  0
  103.0650   81.1250   85.8410 N   0  0  0  0  0  0  0  0  0  0  0  0
  101.9960   81.8930   86.0900 C   0  0  0  0  0  0  0  0  0  0  0  0
  101.7510   83.2050   85.6970 C   0  0  0  0  0  3  0  0  0  0  0  0
  1 19  1  0
  1  2  2  0
  3  2  1  0
  4  3  2  0
  5  4  1  0
  6  5  2  0
  7  8  2  0
  7  6  1  0
  8  9  1  0
  9 10  2  0
  9  4  1  0
 10  1  1  0
 11  7  1  0
 12 11  1  0
 13 12  1  0
 13 14  1  0
 14 15  1  0
 16 15  1  0
 16  6  1  0
 17 18  2  0
 18 20  1  0
 18 19  1  0
 20 21  1  0
 21 22  2  0
 23 24  2  0
 23 22  1  0
 25 24  1  0
 26 27  2  0
 26 25  1  0
 27 23  1  0
 28 27  1  0
 28 20  2  0
M  RAD  8   2   2   3   2   5   2   8   2  10   2  12   3  13   3  14   3
M  RAD  5  15   3  19   2  21   2  22   2  28   2
M  END
>  <MODEL>  (26) 
1

>  <TORSDO>  (26) 
F 2

>  <SCORE>  (26) 
-12.036

>  <ligand_id>  (26) 
22

>  <original_smiles>  (26) 
O=C(Nc1ccc2cc3c(cc2c1)OCCCCO3)c1ccc2nonc2c1

>  <smiles>  (26) 
O=C(Nc1ccc2cc3c(cc2c1)OCCCCO3)c1ccc2nonc2c1

$$$$
22:0
     RDKit          3D

 28 32  0  0  0  0  0  0  0  0999 V2000
   98.5030   87.0870   85.8840 C   0  0  0  0  0  0  0  0  0  0  0  0
   98.8220   88.1140   86.7790 C   0  0  0  0  0  3  0  0  0  0  0  0
   98.3870   89.4230   86.5460 C   0  0  0  0  0  3  0  0  0  0  0  0
   97.6250   89.7120   85.4130 C   0  0  0  0  0  0  0  0  0  0  0  0
   97.1940   91.0160   85.1670 C   0  0  0  0  0  3  0  0  0  0  0  0
   96.4230   91.3140   84.0370 C   0  0  0  0  0  0  0  0  0  0  0  0
   96.0830   90.2760   83.1240 C   0  0  0  0  0  0  0  0  0  0  0  0
   96.5400   88.9760   83.3710 C   0  0  0  0  0  3  0  0  0  0  0  0
   97.2990   88.6850   84.5040 C   0  0  0  0  0  0  0  0  0  0  0  0
   97.7380   87.3800   84.7430 C   0  0  0  0  0  3  0  0  0  0  0  0
   95.3520   90.4720   81.9430 O   0  0  0  0  0  0  0  0  0  0  0  0
   94.1880   91.2820   81.8270 C   0  0  0  0  0  2  0  0  0  0  0  0
   94.5680   92.7120   81.4940 C   0  0  0  0  0  2  0  0  0  0  0  0
   94.2280   93.6410   82.6530 C   0  0  0  0  0  2  0  0  0  0  0  0
   94.7460   93.1030   83.9780 C   0  0  0  0  0  2  0  0  0  0  0  0
   96.0820   92.6490   83.8280 O   0  0  0  0  0  0  0  0  0  0  0  0
  101.0110   85.8290   85.0090 O   0  0  0  0  0  0  0  0  0  0  0  0
  100.2030   85.1710   85.7200 C   0  0  0  0  0  0  0  0  0  0  0  0
   98.9710   85.7610   86.1620 N   0  0  0  0  0  2  0  0  0  0  0  0
  100.5270   83.7850   86.1000 C   0  0  0  0  0  0  0  0  0  0  0  0
   99.6100   83.0270   86.8760 C   0  0  0  0  0  3  0  0  0  0  0  0
   99.8980   81.7010   87.2510 C   0  0  0  0  0  3  0  0  0  0  0  0
  101.1150   81.1790   86.8280 C   0  0  0  0  0  0  0  0  0  0  0  0
  101.6300   79.9620   87.0440 N   0  0  0  0  0  0  0  0  0  0  0  0
  102.7900   79.9880   86.4330 O   0  0  0  0  0  0  0  0  0  0  0  0
  103.0650   81.1250   85.8410 N   0  0  0  0  0  0  0  0  0  0  0  0
  101.9960   81.8930   86.0900 C   0  0  0  0  0  0  0  0  0  0  0  0
  101.7510   83.2050   85.6970 C   0  0  0  0  0  3  0  0  0  0  0  0
  1 19  1  0
  1  2  2  0
  3  2  1  0
  4  3  2  0
  5  4  1  0
  6  5  2  0
  7  8  2  0
  7  6  1  0
  8  9  1  0
  9 10  2  0
  9  4  1  0
 10  1  1  0
 11  7  1  0
 12 11  1  0
 13 12  1  0
 13 14  1  0
 14 15  1  0
 16 15  1  0
 16  6  1  0
 17 18  2  0
 18 20  1  0
 18 19  1  0
 20 21  1  0
 21 22  2  0
 23 24  2  0
 23 22  1  0
 25 24  1  0
 26 27  2  0
 26 25  1  0
 27 23  1  0
 28 27  1  0
 28 20  2  0
M  RAD  8   2   2   3   2   5   2   8   2  10   2  12   3  13   3  14   3
M  RAD  5  15   3  19   2  21   2  22   2  28   2
M  END
>  <MODEL>  (27) 
1

>  <TORSDO>  (27) 
F 2

>  <SCORE>  (27) 
-12.036

>  <ligand_id>  (27) 
22

>  <original_smiles>  (27) 
O=C(Nc1ccc2cc3c(cc2c1)OCCCCO3)c1ccc2nonc2c1

>  <smiles>  (27) 
O=C(Nc1ccc2cc3c(cc2c1)OCCCCO3)c1ccc2nonc2c1

$$$$
22:0
     RDKit          3D

 28 32  0  0  0  0  0  0  0  0999 V2000
   98.5030   87.0870   85.8840 C   0  0  0  0  0  0  0  0  0  0  0  0
   98.8220   88.1140   86.7790 C   0  0  0  0  0  3  0  0  0  0  0  0
   98.3870   89.4230   86.5460 C   0  0  0  0  0  3  0  0  0  0  0  0
   97.6250   89.7120   85.4130 C   0  0  0  0  0  0  0  0  0  0  0  0
   97.1940   91.0160   85.1670 C   0  0  0  0  0  3  0  0  0  0  0  0
   96.4230   91.3140   84.0370 C   0  0  0  0  0  0  0  0  0  0  0  0
   96.0830   90.2760   83.1240 C   0  0  0  0  0  0  0  0  0  0  0  0
   96.5400   88.9760   83.3710 C   0  0  0  0  0  3  0  0  0  0  0  0
   97.2990   88.6850   84.5040 C   0  0  0  0  0  0  0  0  0  0  0  0
   97.7380   87.3800   84.7430 C   0  0  0  0  0  3  0  0  0  0  0  0
   95.3520   90.4720   81.9430 O   0  0  0  0  0  0  0  0  0  0  0  0
   94.1880   91.2820   81.8270 C   0  0  0  0  0  2  0  0  0  0  0  0
   94.5680   92.7120   81.4940 C   0  0  0  0  0  2  0  0  0  0  0  0
   94.2280   93.6410   82.6530 C   0  0  0  0  0  2  0  0  0  0  0  0
   94.7460   93.1030   83.9780 C   0  0  0  0  0  2  0  0  0  0  0  0
   96.0820   92.6490   83.8280 O   0  0  0  0  0  0  0  0  0  0  0  0
  101.0110   85.8290   85.0090 O   0  0  0  0  0  0  0  0  0  0  0  0
  100.2030   85.1710   85.7200 C   0  0  0  0  0  0  0  0  0  0  0  0
   98.9710   85.7610   86.1620 N   0  0  0  0  0  2  0  0  0  0  0  0
  100.5270   83.7850   86.1000 C   0  0  0  0  0  0  0  0  0  0  0  0
   99.6100   83.0270   86.8760 C   0  0  0  0  0  3  0  0  0  0  0  0
   99.8980   81.7010   87.2510 C   0  0  0  0  0  3  0  0  0  0  0  0
  101.1150   81.1790   86.8280 C   0  0  0  0  0  0  0  0  0  0  0  0
  101.6300   79.9620   87.0440 N   0  0  0  0  0  0  0  0  0  0  0  0
  102.7900   79.9880   86.4330 O   0  0  0  0  0  0  0  0  0  0  0  0
  103.0650   81.1250   85.8410 N   0  0  0  0  0  0  0  0  0  0  0  0
  101.9960   81.8930   86.0900 C   0  0  0  0  0  0  0  0  0  0  0  0
  101.7510   83.2050   85.6970 C   0  0  0  0  0  3  0  0  0  0  0  0
  1 19  1  0
  1  2  2  0
  3  2  1  0
  4  3  2  0
  5  4  1  0
  6  5  2  0
  7  8  2  0
  7  6  1  0
  8  9  1  0
  9 10  2  0
  9  4  1  0
 10  1  1  0
 11  7  1  0
 12 11  1  0
 13 12  1  0
 13 14  1  0
 14 15  1  0
 16 15  1  0
 16  6  1  0
 17 18  2  0
 18 20  1  0
 18 19  1  0
 20 21  1  0
 21 22  2  0
 23 24  2  0
 23 22  1  0
 25 24  1  0
 26 27  2  0
 26 25  1  0
 27 23  1  0
 28 27  1  0
 28 20  2  0
M  RAD  8   2   2   3   2   5   2   8   2  10   2  12   3  13   3  14   3
M  RAD  5  15   3  19   2  21   2  22   2  28   2
M  END
>  <MODEL>  (28) 
1

>  <TORSDO>  (28) 
F 2

>  <SCORE>  (28) 
-12.036

>  <ligand_id>  (28) 
22

>  <original_smiles>  (28) 
O=C(Nc1ccc2cc3c(cc2c1)OCCCCO3)c1ccc2nonc2c1

>  <smiles>  (28) 
O=C(Nc1ccc2cc3c(cc2c1)OCCCCO3)c1ccc2nonc2c1

$$$$
22:0
     RDKit          3D

 28 32  0  0  0  0  0  0  0  0999 V2000
   98.5030   87.0870   85.8840 C   0  0  0  0  0  0  0  0  0  0  0  0
   98.8220   88.1140   86.7790 C   0  0  0  0  0  3  0  0  0  0  0  0
   98.3870   89.4230   86.5460 C   0  0  0  0  0  3  0  0  0  0  0  0
   97.6250   89.7120   85.4130 C   0  0  0  0  0  0  0  0  0  0  0  0
   97.1940   91.0160   85.1670 C   0  0  0  0  0  3  0  0  0  0  0  0
   96.4230   91.3140   84.0370 C   0  0  0  0  0  0  0  0  0  0  0  0
   96.0830   90.2760   83.1240 C   0  0  0  0  0  0  0  0  0  0  0  0
   96.5400   88.9760   83.3710 C   0  0  0  0  0  3  0  0  0  0  0  0
   97.2990   88.6850   84.5040 C   0  0  0  0  0  0  0  0  0  0  0  0
   97.7380   87.3800   84.7430 C   0  0  0  0  0  3  0  0  0  0  0  0
   95.3520   90.4720   81.9430 O   0  0  0  0  0  0  0  0  0  0  0  0
   94.1880   91.2820   81.8270 C   0  0  0  0  0  2  0  0  0  0  0  0
   94.5680   92.7120   81.4940 C   0  0  0  0  0  2  0  0  0  0  0  0
   94.2280   93.6410   82.6530 C   0  0  0  0  0  2  0  0  0  0  0  0
   94.7460   93.1030   83.9780 C   0  0  0  0  0  2  0  0  0  0  0  0
   96.0820   92.6490   83.8280 O   0  0  0  0  0  0  0  0  0  0  0  0
  101.0110   85.8290   85.0090 O   0  0  0  0  0  0  0  0  0  0  0  0
  100.2030   85.1710   85.7200 C   0  0  0  0  0  0  0  0  0  0  0  0
   98.9710   85.7610   86.1620 N   0  0  0  0  0  2  0  0  0  0  0  0
  100.5270   83.7850   86.1000 C   0  0  0  0  0  0  0  0  0  0  0  0
   99.6100   83.0270   86.8760 C   0  0  0  0  0  3  0  0  0  0  0  0
   99.8980   81.7010   87.2510 C   0  0  0  0  0  3  0  0  0  0  0  0
  101.1150   81.1790   86.8280 C   0  0  0  0  0  0  0  0  0  0  0  0
  101.6300   79.9620   87.0440 N   0  0  0  0  0  0  0  0  0  0  0  0
  102.7900   79.9880   86.4330 O   0  0  0  0  0  0  0  0  0  0  0  0
  103.0650   81.1250   85.8410 N   0  0  0  0  0  0  0  0  0  0  0  0
  101.9960   81.8930   86.0900 C   0  0  0  0  0  0  0  0  0  0  0  0
  101.7510   83.2050   85.6970 C   0  0  0  0  0  3  0  0  0  0  0  0
  1 19  1  0
  1  2  2  0
  3  2  1  0
  4  3  2  0
  5  4  1  0
  6  5  2  0
  7  8  2  0
  7  6  1  0
  8  9  1  0
  9 10  2  0
  9  4  1  0
 10  1  1  0
 11  7  1  0
 12 11  1  0
 13 12  1  0
 13 14  1  0
 14 15  1  0
 16 15  1  0
 16  6  1  0
 17 18  2  0
 18 20  1  0
 18 19  1  0
 20 21  1  0
 21 22  2  0
 23 24  2  0
 23 22  1  0
 25 24  1  0
 26 27  2  0
 26 25  1  0
 27 23  1  0
 28 27  1  0
 28 20  2  0
M  RAD  8   2   2   3   2   5   2   8   2  10   2  12   3  13   3  14   3
M  RAD  5  15   3  19   2  21   2  22   2  28   2
M  END
>  <MODEL>  (29) 
1

>  <TORSDO>  (29) 
F 2

>  <SCORE>  (29) 
-12.036

>  <ligand_id>  (29) 
22

>  <original_smiles>  (29) 
O=C(Nc1ccc2cc3c(cc2c1)OCCCCO3)c1ccc2nonc2c1

>  <smiles>  (29) 
O=C(Nc1ccc2cc3c(cc2c1)OCCCCO3)c1ccc2nonc2c1

$$$$
22:0
     RDKit          3D

 28 32  0  0  0  0  0  0  0  0999 V2000
   98.5030   87.0870   85.8840 C   0  0  0  0  0  0  0  0  0  0  0  0
   98.8220   88.1140   86.7790 C   0  0  0  0  0  3  0  0  0  0  0  0
   98.3870   89.4230   86.5460 C   0  0  0  0  0  3  0  0  0  0  0  0
   97.6250   89.7120   85.4130 C   0  0  0  0  0  0  0  0  0  0  0  0
   97.1940   91.0160   85.1670 C   0  0  0  0  0  3  0  0  0  0  0  0
   96.4230   91.3140   84.0370 C   0  0  0  0  0  0  0  0  0  0  0  0
   96.0830   90.2760   83.1240 C   0  0  0  0  0  0  0  0  0  0  0  0
   96.5400   88.9760   83.3710 C   0  0  0  0  0  3  0  0  0  0  0  0
   97.2990   88.6850   84.5040 C   0  0  0  0  0  0  0  0  0  0  0  0
   97.7380   87.3800   84.7430 C   0  0  0  0  0  3  0  0  0  0  0  0
   95.3520   90.4720   81.9430 O   0  0  0  0  0  0  0  0  0  0  0  0
   94.1880   91.2820   81.8270 C   0  0  0  0  0  2  0  0  0  0  0  0
   94.5680   92.7120   81.4940 C   0  0  0  0  0  2  0  0  0  0  0  0
   94.2280   93.6410   82.6530 C   0  0  0  0  0  2  0  0  0  0  0  0
   94.7460   93.1030   83.9780 C   0  0  0  0  0  2  0  0  0  0  0  0
   96.0820   92.6490   83.8280 O   0  0  0  0  0  0  0  0  0  0  0  0
  101.0110   85.8290   85.0090 O   0  0  0  0  0  0  0  0  0  0  0  0
  100.2030   85.1710   85.7200 C   0  0  0  0  0  0  0  0  0  0  0  0
   98.9710   85.7610   86.1620 N   0  0  0  0  0  2  0  0  0  0  0  0
  100.5270   83.7850   86.1000 C   0  0  0  0  0  0  0  0  0  0  0  0
   99.6100   83.0270   86.8760 C   0  0  0  0  0  3  0  0  0  0  0  0
   99.8980   81.7010   87.2510 C   0  0  0  0  0  3  0  0  0  0  0  0
  101.1150   81.1790   86.8280 C   0  0  0  0  0  0  0  0  0  0  0  0
  101.6300   79.9620   87.0440 N   0  0  0  0  0  0  0  0  0  0  0  0
  102.7900   79.9880   86.4330 O   0  0  0  0  0  0  0  0  0  0  0  0
  103.0650   81.1250   85.8410 N   0  0  0  0  0  0  0  0  0  0  0  0
  101.9960   81.8930   86.0900 C   0  0  0  0  0  0  0  0  0  0  0  0
  101.7510   83.2050   85.6970 C   0  0  0  0  0  3  0  0  0  0  0  0
  1 19  1  0
  1  2  2  0
  3  2  1  0
  4  3  2  0
  5  4  1  0
  6  5  2  0
  7  8  2  0
  7  6  1  0
  8  9  1  0
  9 10  2  0
  9  4  1  0
 10  1  1  0
 11  7  1  0
 12 11  1  0
 13 12  1  0
 13 14  1  0
 14 15  1  0
 16 15  1  0
 16  6  1  0
 17 18  2  0
 18 20  1  0
 18 19  1  0
 20 21  1  0
 21 22  2  0
 23 24  2  0
 23 22  1  0
 25 24  1  0
 26 27  2  0
 26 25  1  0
 27 23  1  0
 28 27  1  0
 28 20  2  0
M  RAD  8   2   2   3   2   5   2   8   2  10   2  12   3  13   3  14   3
M  RAD  5  15   3  19   2  21   2  22   2  28   2
M  END
>  <MODEL>  (30) 
1

>  <TORSDO>  (30) 
F 2

>  <SCORE>  (30) 
-12.036

>  <ligand_id>  (30) 
22

>  <original_smiles>  (30) 
O=C(Nc1ccc2cc3c(cc2c1)OCCCCO3)c1ccc2nonc2c1

>  <smiles>  (30) 
O=C(Nc1ccc2cc3c(cc2c1)OCCCCO3)c1ccc2nonc2c1

$$$$
22:0
     RDKit          3D

 28 32  0  0  0  0  0  0  0  0999 V2000
   98.5030   87.0870   85.8840 C   0  0  0  0  0  0  0  0  0  0  0  0
   98.8220   88.1140   86.7790 C   0  0  0  0  0  3  0  0  0  0  0  0
   98.3870   89.4230   86.5460 C   0  0  0  0  0  3  0  0  0  0  0  0
   97.6250   89.7120   85.4130 C   0  0  0  0  0  0  0  0  0  0  0  0
   97.1940   91.0160   85.1670 C   0  0  0  0  0  3  0  0  0  0  0  0
   96.4230   91.3140   84.0370 C   0  0  0  0  0  0  0  0  0  0  0  0
   96.0830   90.2760   83.1240 C   0  0  0  0  0  0  0  0  0  0  0  0
   96.5400   88.9760   83.3710 C   0  0  0  0  0  3  0  0  0  0  0  0
   97.2990   88.6850   84.5040 C   0  0  0  0  0  0  0  0  0  0  0  0
   97.7380   87.3800   84.7430 C   0  0  0  0  0  3  0  0  0  0  0  0
   95.3520   90.4720   81.9430 O   0  0  0  0  0  0  0  0  0  0  0  0
   94.1880   91.2820   81.8270 C   0  0  0  0  0  2  0  0  0  0  0  0
   94.5680   92.7120   81.4940 C   0  0  0  0  0  2  0  0  0  0  0  0
   94.2280   93.6410   82.6530 C   0  0  0  0  0  2  0  0  0  0  0  0
   94.7460   93.1030   83.9780 C   0  0  0  0  0  2  0  0  0  0  0  0
   96.0820   92.6490   83.8280 O   0  0  0  0  0  0  0  0  0  0  0  0
  101.0110   85.8290   85.0090 O   0  0  0  0  0  0  0  0  0  0  0  0
  100.2030   85.1710   85.7200 C   0  0  0  0  0  0  0  0  0  0  0  0
   98.9710   85.7610   86.1620 N   0  0  0  0  0  2  0  0  0  0  0  0
  100.5270   83.7850   86.1000 C   0  0  0  0  0  0  0  0  0  0  0  0
   99.6100   83.0270   86.8760 C   0  0  0  0  0  3  0  0  0  0  0  0
   99.8980   81.7010   87.2510 C   0  0  0  0  0  3  0  0  0  0  0  0
  101.1150   81.1790   86.8280 C   0  0  0  0  0  0  0  0  0  0  0  0
  101.6300   79.9620   87.0440 N   0  0  0  0  0  0  0  0  0  0  0  0
  102.7900   79.9880   86.4330 O   0  0  0  0  0  0  0  0  0  0  0  0
  103.0650   81.1250   85.8410 N   0  0  0  0  0  0  0  0  0  0  0  0
  101.9960   81.8930   86.0900 C   0  0  0  0  0  0  0  0  0  0  0  0
  101.7510   83.2050   85.6970 C   0  0  0  0  0  3  0  0  0  0  0  0
  1 19  1  0
  1  2  2  0
  3  2  1  0
  4  3  2  0
  5  4  1  0
  6  5  2  0
  7  8  2  0
  7  6  1  0
  8  9  1  0
  9 10  2  0
  9  4  1  0
 10  1  1  0
 11  7  1  0
 12 11  1  0
 13 12  1  0
 13 14  1  0
 14 15  1  0
 16 15  1  0
 16  6  1  0
 17 18  2  0
 18 20  1  0
 18 19  1  0
 20 21  1  0
 21 22  2  0
 23 24  2  0
 23 22  1  0
 25 24  1  0
 26 27  2  0
 26 25  1  0
 27 23  1  0
 28 27  1  0
 28 20  2  0
M  RAD  8   2   2   3   2   5   2   8   2  10   2  12   3  13   3  14   3
M  RAD  5  15   3  19   2  21   2  22   2  28   2
M  END
>  <MODEL>  (31) 
1

>  <TORSDO>  (31) 
F 2

>  <SCORE>  (31) 
-12.036

>  <ligand_id>  (31) 
22

>  <original_smiles>  (31) 
O=C(Nc1ccc2cc3c(cc2c1)OCCCCO3)c1ccc2nonc2c1

>  <smiles>  (31) 
O=C(Nc1ccc2cc3c(cc2c1)OCCCCO3)c1ccc2nonc2c1

$$$$
22:0
     RDKit          3D

 28 32  0  0  0  0  0  0  0  0999 V2000
   98.5030   87.0870   85.8840 C   0  0  0  0  0  0  0  0  0  0  0  0
   98.8220   88.1140   86.7790 C   0  0  0  0  0  3  0  0  0  0  0  0
   98.3870   89.4230   86.5460 C   0  0  0  0  0  3  0  0  0  0  0  0
   97.6250   89.7120   85.4130 C   0  0  0  0  0  0  0  0  0  0  0  0
   97.1940   91.0160   85.1670 C   0  0  0  0  0  3  0  0  0  0  0  0
   96.4230   91.3140   84.0370 C   0  0  0  0  0  0  0  0  0  0  0  0
   96.0830   90.2760   83.1240 C   0  0  0  0  0  0  0  0  0  0  0  0
   96.5400   88.9760   83.3710 C   0  0  0  0  0  3  0  0  0  0  0  0
   97.2990   88.6850   84.5040 C   0  0  0  0  0  0  0  0  0  0  0  0
   97.7380   87.3800   84.7430 C   0  0  0  0  0  3  0  0  0  0  0  0
   95.3520   90.4720   81.9430 O   0  0  0  0  0  0  0  0  0  0  0  0
   94.1880   91.2820   81.8270 C   0  0  0  0  0  2  0  0  0  0  0  0
   94.5680   92.7120   81.4940 C   0  0  0  0  0  2  0  0  0  0  0  0
   94.2280   93.6410   82.6530 C   0  0  0  0  0  2  0  0  0  0  0  0
   94.7460   93.1030   83.9780 C   0  0  0  0  0  2  0  0  0  0  0  0
   96.0820   92.6490   83.8280 O   0  0  0  0  0  0  0  0  0  0  0  0
  101.0110   85.8290   85.0090 O   0  0  0  0  0  0  0  0  0  0  0  0
  100.2030   85.1710   85.7200 C   0  0  0  0  0  0  0  0  0  0  0  0
   98.9710   85.7610   86.1620 N   0  0  0  0  0  2  0  0  0  0  0  0
  100.5270   83.7850   86.1000 C   0  0  0  0  0  0  0  0  0  0  0  0
   99.6100   83.0270   86.8760 C   0  0  0  0  0  3  0  0  0  0  0  0
   99.8980   81.7010   87.2510 C   0  0  0  0  0  3  0  0  0  0  0  0
  101.1150   81.1790   86.8280 C   0  0  0  0  0  0  0  0  0  0  0  0
  101.6300   79.9620   87.0440 N   0  0  0  0  0  0  0  0  0  0  0  0
  102.7900   79.9880   86.4330 O   0  0  0  0  0  0  0  0  0  0  0  0
  103.0650   81.1250   85.8410 N   0  0  0  0  0  0  0  0  0  0  0  0
  101.9960   81.8930   86.0900 C   0  0  0  0  0  0  0  0  0  0  0  0
  101.7510   83.2050   85.6970 C   0  0  0  0  0  3  0  0  0  0  0  0
  1 19  1  0
  1  2  2  0
  3  2  1  0
  4  3  2  0
  5  4  1  0
  6  5  2  0
  7  8  2  0
  7  6  1  0
  8  9  1  0
  9 10  2  0
  9  4  1  0
 10  1  1  0
 11  7  1  0
 12 11  1  0
 13 12  1  0
 13 14  1  0
 14 15  1  0
 16 15  1  0
 16  6  1  0
 17 18  2  0
 18 20  1  0
 18 19  1  0
 20 21  1  0
 21 22  2  0
 23 24  2  0
 23 22  1  0
 25 24  1  0
 26 27  2  0
 26 25  1  0
 27 23  1  0
 28 27  1  0
 28 20  2  0
M  RAD  8   2   2   3   2   5   2   8   2  10   2  12   3  13   3  14   3
M  RAD  5  15   3  19   2  21   2  22   2  28   2
M  END
>  <MODEL>  (32) 
1

>  <TORSDO>  (32) 
F 2

>  <SCORE>  (32) 
-12.036

>  <ligand_id>  (32) 
22

>  <original_smiles>  (32) 
O=C(Nc1ccc2cc3c(cc2c1)OCCCCO3)c1ccc2nonc2c1

>  <smiles>  (32) 
O=C(Nc1ccc2cc3c(cc2c1)OCCCCO3)c1ccc2nonc2c1

$$$$
22:0
     RDKit          3D

 28 32  0  0  0  0  0  0  0  0999 V2000
   98.5030   87.0870   85.8840 C   0  0  0  0  0  0  0  0  0  0  0  0
   98.8220   88.1140   86.7790 C   0  0  0  0  0  3  0  0  0  0  0  0
   98.3870   89.4230   86.5460 C   0  0  0  0  0  3  0  0  0  0  0  0
   97.6250   89.7120   85.4130 C   0  0  0  0  0  0  0  0  0  0  0  0
   97.1940   91.0160   85.1670 C   0  0  0  0  0  3  0  0  0  0  0  0
   96.4230   91.3140   84.0370 C   0  0  0  0  0  0  0  0  0  0  0  0
   96.0830   90.2760   83.1240 C   0  0  0  0  0  0  0  0  0  0  0  0
   96.5400   88.9760   83.3710 C   0  0  0  0  0  3  0  0  0  0  0  0
   97.2990   88.6850   84.5040 C   0  0  0  0  0  0  0  0  0  0  0  0
   97.7380   87.3800   84.7430 C   0  0  0  0  0  3  0  0  0  0  0  0
   95.3520   90.4720   81.9430 O   0  0  0  0  0  0  0  0  0  0  0  0
   94.1880   91.2820   81.8270 C   0  0  0  0  0  2  0  0  0  0  0  0
   94.5680   92.7120   81.4940 C   0  0  0  0  0  2  0  0  0  0  0  0
   94.2280   93.6410   82.6530 C   0  0  0  0  0  2  0  0  0  0  0  0
   94.7460   93.1030   83.9780 C   0  0  0  0  0  2  0  0  0  0  0  0
   96.0820   92.6490   83.8280 O   0  0  0  0  0  0  0  0  0  0  0  0
  101.0110   85.8290   85.0090 O   0  0  0  0  0  0  0  0  0  0  0  0
  100.2030   85.1710   85.7200 C   0  0  0  0  0  0  0  0  0  0  0  0
   98.9710   85.7610   86.1620 N   0  0  0  0  0  2  0  0  0  0  0  0
  100.5270   83.7850   86.1000 C   0  0  0  0  0  0  0  0  0  0  0  0
   99.6100   83.0270   86.8760 C   0  0  0  0  0  3  0  0  0  0  0  0
   99.8980   81.7010   87.2510 C   0  0  0  0  0  3  0  0  0  0  0  0
  101.1150   81.1790   86.8280 C   0  0  0  0  0  0  0  0  0  0  0  0
  101.6300   79.9620   87.0440 N   0  0  0  0  0  0  0  0  0  0  0  0
  102.7900   79.9880   86.4330 O   0  0  0  0  0  0  0  0  0  0  0  0
  103.0650   81.1250   85.8410 N   0  0  0  0  0  0  0  0  0  0  0  0
  101.9960   81.8930   86.0900 C   0  0  0  0  0  0  0  0  0  0  0  0
  101.7510   83.2050   85.6970 C   0  0  0  0  0  3  0  0  0  0  0  0
  1 19  1  0
  1  2  2  0
  3  2  1  0
  4  3  2  0
  5  4  1  0
  6  5  2  0
  7  8  2  0
  7  6  1  0
  8  9  1  0
  9 10  2  0
  9  4  1  0
 10  1  1  0
 11  7  1  0
 12 11  1  0
 13 12  1  0
 13 14  1  0
 14 15  1  0
 16 15  1  0
 16  6  1  0
 17 18  2  0
 18 20  1  0
 18 19  1  0
 20 21  1  0
 21 22  2  0
 23 24  2  0
 23 22  1  0
 25 24  1  0
 26 27  2  0
 26 25  1  0
 27 23  1  0
 28 27  1  0
 28 20  2  0
M  RAD  8   2   2   3   2   5   2   8   2  10   2  12   3  13   3  14   3
M  RAD  5  15   3  19   2  21   2  22   2  28   2
M  END
>  <MODEL>  (33) 
1

>  <TORSDO>  (33) 
F 2

>  <SCORE>  (33) 
-12.036

>  <ligand_id>  (33) 
22

>  <original_smiles>  (33) 
O=C(Nc1ccc2cc3c(cc2c1)OCCCCO3)c1ccc2nonc2c1

>  <smiles>  (33) 
O=C(Nc1ccc2cc3c(cc2c1)OCCCCO3)c1ccc2nonc2c1

$$$$
22:0
     RDKit          3D

 28 32  0  0  0  0  0  0  0  0999 V2000
   98.5030   87.0870   85.8840 C   0  0  0  0  0  0  0  0  0  0  0  0
   98.8220   88.1140   86.7790 C   0  0  0  0  0  3  0  0  0  0  0  0
   98.3870   89.4230   86.5460 C   0  0  0  0  0  3  0  0  0  0  0  0
   97.6250   89.7120   85.4130 C   0  0  0  0  0  0  0  0  0  0  0  0
   97.1940   91.0160   85.1670 C   0  0  0  0  0  3  0  0  0  0  0  0
   96.4230   91.3140   84.0370 C   0  0  0  0  0  0  0  0  0  0  0  0
   96.0830   90.2760   83.1240 C   0  0  0  0  0  0  0  0  0  0  0  0
   96.5400   88.9760   83.3710 C   0  0  0  0  0  3  0  0  0  0  0  0
   97.2990   88.6850   84.5040 C   0  0  0  0  0  0  0  0  0  0  0  0
   97.7380   87.3800   84.7430 C   0  0  0  0  0  3  0  0  0  0  0  0
   95.3520   90.4720   81.9430 O   0  0  0  0  0  0  0  0  0  0  0  0
   94.1880   91.2820   81.8270 C   0  0  0  0  0  2  0  0  0  0  0  0
   94.5680   92.7120   81.4940 C   0  0  0  0  0  2  0  0  0  0  0  0
   94.2280   93.6410   82.6530 C   0  0  0  0  0  2  0  0  0  0  0  0
   94.7460   93.1030   83.9780 C   0  0  0  0  0  2  0  0  0  0  0  0
   96.0820   92.6490   83.8280 O   0  0  0  0  0  0  0  0  0  0  0  0
  101.0110   85.8290   85.0090 O   0  0  0  0  0  0  0  0  0  0  0  0
  100.2030   85.1710   85.7200 C   0  0  0  0  0  0  0  0  0  0  0  0
   98.9710   85.7610   86.1620 N   0  0  0  0  0  2  0  0  0  0  0  0
  100.5270   83.7850   86.1000 C   0  0  0  0  0  0  0  0  0  0  0  0
   99.6100   83.0270   86.8760 C   0  0  0  0  0  3  0  0  0  0  0  0
   99.8980   81.7010   87.2510 C   0  0  0  0  0  3  0  0  0  0  0  0
  101.1150   81.1790   86.8280 C   0  0  0  0  0  0  0  0  0  0  0  0
  101.6300   79.9620   87.0440 N   0  0  0  0  0  0  0  0  0  0  0  0
  102.7900   79.9880   86.4330 O   0  0  0  0  0  0  0  0  0  0  0  0
  103.0650   81.1250   85.8410 N   0  0  0  0  0  0  0  0  0  0  0  0
  101.9960   81.8930   86.0900 C   0  0  0  0  0  0  0  0  0  0  0  0
  101.7510   83.2050   85.6970 C   0  0  0  0  0  3  0  0  0  0  0  0
  1 19  1  0
  1  2  2  0
  3  2  1  0
  4  3  2  0
  5  4  1  0
  6  5  2  0
  7  8  2  0
  7  6  1  0
  8  9  1  0
  9 10  2  0
  9  4  1  0
 10  1  1  0
 11  7  1  0
 12 11  1  0
 13 12  1  0
 13 14  1  0
 14 15  1  0
 16 15  1  0
 16  6  1  0
 17 18  2  0
 18 20  1  0
 18 19  1  0
 20 21  1  0
 21 22  2  0
 23 24  2  0
 23 22  1  0
 25 24  1  0
 26 27  2  0
 26 25  1  0
 27 23  1  0
 28 27  1  0
 28 20  2  0
M  RAD  8   2   2   3   2   5   2   8   2  10   2  12   3  13   3  14   3
M  RAD  5  15   3  19   2  21   2  22   2  28   2
M  END
>  <MODEL>  (34) 
1

>  <TORSDO>  (34) 
F 2

>  <SCORE>  (34) 
-12.036

>  <ligand_id>  (34) 
22

>  <original_smiles>  (34) 
O=C(Nc1ccc2cc3c(cc2c1)OCCCCO3)c1ccc2nonc2c1

>  <smiles>  (34) 
O=C(Nc1ccc2cc3c(cc2c1)OCCCCO3)c1ccc2nonc2c1

$$$$
22:0
     RDKit          3D

 28 32  0  0  0  0  0  0  0  0999 V2000
   98.5030   87.0870   85.8840 C   0  0  0  0  0  0  0  0  0  0  0  0
   98.8220   88.1140   86.7790 C   0  0  0  0  0  3  0  0  0  0  0  0
   98.3870   89.4230   86.5460 C   0  0  0  0  0  3  0  0  0  0  0  0
   97.6250   89.7120   85.4130 C   0  0  0  0  0  0  0  0  0  0  0  0
   97.1940   91.0160   85.1670 C   0  0  0  0  0  3  0  0  0  0  0  0
   96.4230   91.3140   84.0370 C   0  0  0  0  0  0  0  0  0  0  0  0
   96.0830   90.2760   83.1240 C   0  0  0  0  0  0  0  0  0  0  0  0
   96.5400   88.9760   83.3710 C   0  0  0  0  0  3  0  0  0  0  0  0
   97.2990   88.6850   84.5040 C   0  0  0  0  0  0  0  0  0  0  0  0
   97.7380   87.3800   84.7430 C   0  0  0  0  0  3  0  0  0  0  0  0
   95.3520   90.4720   81.9430 O   0  0  0  0  0  0  0  0  0  0  0  0
   94.1880   91.2820   81.8270 C   0  0  0  0  0  2  0  0  0  0  0  0
   94.5680   92.7120   81.4940 C   0  0  0  0  0  2  0  0  0  0  0  0
   94.2280   93.6410   82.6530 C   0  0  0  0  0  2  0  0  0  0  0  0
   94.7460   93.1030   83.9780 C   0  0  0  0  0  2  0  0  0  0  0  0
   96.0820   92.6490   83.8280 O   0  0  0  0  0  0  0  0  0  0  0  0
  101.0110   85.8290   85.0090 O   0  0  0  0  0  0  0  0  0  0  0  0
  100.2030   85.1710   85.7200 C   0  0  0  0  0  0  0  0  0  0  0  0
   98.9710   85.7610   86.1620 N   0  0  0  0  0  2  0  0  0  0  0  0
  100.5270   83.7850   86.1000 C   0  0  0  0  0  0  0  0  0  0  0  0
   99.6100   83.0270   86.8760 C   0  0  0  0  0  3  0  0  0  0  0  0
   99.8980   81.7010   87.2510 C   0  0  0  0  0  3  0  0  0  0  0  0
  101.1150   81.1790   86.8280 C   0  0  0  0  0  0  0  0  0  0  0  0
  101.6300   79.9620   87.0440 N   0  0  0  0  0  0  0  0  0  0  0  0
  102.7900   79.9880   86.4330 O   0  0  0  0  0  0  0  0  0  0  0  0
  103.0650   81.1250   85.8410 N   0  0  0  0  0  0  0  0  0  0  0  0
  101.9960   81.8930   86.0900 C   0  0  0  0  0  0  0  0  0  0  0  0
  101.7510   83.2050   85.6970 C   0  0  0  0  0  3  0  0  0  0  0  0
  1 19  1  0
  1  2  2  0
  3  2  1  0
  4  3  2  0
  5  4  1  0
  6  5  2  0
  7  8  2  0
  7  6  1  0
  8  9  1  0
  9 10  2  0
  9  4  1  0
 10  1  1  0
 11  7  1  0
 12 11  1  0
 13 12  1  0
 13 14  1  0
 14 15  1  0
 16 15  1  0
 16  6  1  0
 17 18  2  0
 18 20  1  0
 18 19  1  0
 20 21  1  0
 21 22  2  0
 23 24  2  0
 23 22  1  0
 25 24  1  0
 26 27  2  0
 26 25  1  0
 27 23  1  0
 28 27  1  0
 28 20  2  0
M  RAD  8   2   2   3   2   5   2   8   2  10   2  12   3  13   3  14   3
M  RAD  5  15   3  19   2  21   2  22   2  28   2
M  END
>  <MODEL>  (35) 
1

>  <TORSDO>  (35) 
F 2

>  <SCORE>  (35) 
-12.036

>  <ligand_id>  (35) 
22

>  <original_smiles>  (35) 
O=C(Nc1ccc2cc3c(cc2c1)OCCCCO3)c1ccc2nonc2c1

>  <smiles>  (35) 
O=C(Nc1ccc2cc3c(cc2c1)OCCCCO3)c1ccc2nonc2c1

$$$$
22:0
     RDKit          3D

 28 32  0  0  0  0  0  0  0  0999 V2000
   98.5030   87.0870   85.8840 C   0  0  0  0  0  0  0  0  0  0  0  0
   98.8220   88.1140   86.7790 C   0  0  0  0  0  3  0  0  0  0  0  0
   98.3870   89.4230   86.5460 C   0  0  0  0  0  3  0  0  0  0  0  0
   97.6250   89.7120   85.4130 C   0  0  0  0  0  0  0  0  0  0  0  0
   97.1940   91.0160   85.1670 C   0  0  0  0  0  3  0  0  0  0  0  0
   96.4230   91.3140   84.0370 C   0  0  0  0  0  0  0  0  0  0  0  0
   96.0830   90.2760   83.1240 C   0  0  0  0  0  0  0  0  0  0  0  0
   96.5400   88.9760   83.3710 C   0  0  0  0  0  3  0  0  0  0  0  0
   97.2990   88.6850   84.5040 C   0  0  0  0  0  0  0  0  0  0  0  0
   97.7380   87.3800   84.7430 C   0  0  0  0  0  3  0  0  0  0  0  0
   95.3520   90.4720   81.9430 O   0  0  0  0  0  0  0  0  0  0  0  0
   94.1880   91.2820   81.8270 C   0  0  0  0  0  2  0  0  0  0  0  0
   94.5680   92.7120   81.4940 C   0  0  0  0  0  2  0  0  0  0  0  0
   94.2280   93.6410   82.6530 C   0  0  0  0  0  2  0  0  0  0  0  0
   94.7460   93.1030   83.9780 C   0  0  0  0  0  2  0  0  0  0  0  0
   96.0820   92.6490   83.8280 O   0  0  0  0  0  0  0  0  0  0  0  0
  101.0110   85.8290   85.0090 O   0  0  0  0  0  0  0  0  0  0  0  0
  100.2030   85.1710   85.7200 C   0  0  0  0  0  0  0  0  0  0  0  0
   98.9710   85.7610   86.1620 N   0  0  0  0  0  2  0  0  0  0  0  0
  100.5270   83.7850   86.1000 C   0  0  0  0  0  0  0  0  0  0  0  0
   99.6100   83.0270   86.8760 C   0  0  0  0  0  3  0  0  0  0  0  0
   99.8980   81.7010   87.2510 C   0  0  0  0  0  3  0  0  0  0  0  0
  101.1150   81.1790   86.8280 C   0  0  0  0  0  0  0  0  0  0  0  0
  101.6300   79.9620   87.0440 N   0  0  0  0  0  0  0  0  0  0  0  0
  102.7900   79.9880   86.4330 O   0  0  0  0  0  0  0  0  0  0  0  0
  103.0650   81.1250   85.8410 N   0  0  0  0  0  0  0  0  0  0  0  0
  101.9960   81.8930   86.0900 C   0  0  0  0  0  0  0  0  0  0  0  0
  101.7510   83.2050   85.6970 C   0  0  0  0  0  3  0  0  0  0  0  0
  1 19  1  0
  1  2  2  0
  3  2  1  0
  4  3  2  0
  5  4  1  0
  6  5  2  0
  7  8  2  0
  7  6  1  0
  8  9  1  0
  9 10  2  0
  9  4  1  0
 10  1  1  0
 11  7  1  0
 12 11  1  0
 13 12  1  0
 13 14  1  0
 14 15  1  0
 16 15  1  0
 16  6  1  0
 17 18  2  0
 18 20  1  0
 18 19  1  0
 20 21  1  0
 21 22  2  0
 23 24  2  0
 23 22  1  0
 25 24  1  0
 26 27  2  0
 26 25  1  0
 27 23  1  0
 28 27  1  0
 28 20  2  0
M  RAD  8   2   2   3   2   5   2   8   2  10   2  12   3  13   3  14   3
M  RAD  5  15   3  19   2  21   2  22   2  28   2
M  END
>  <MODEL>  (36) 
1

>  <TORSDO>  (36) 
F 2

>  <SCORE>  (36) 
-12.036

>  <ligand_id>  (36) 
22

>  <original_smiles>  (36) 
O=C(Nc1ccc2cc3c(cc2c1)OCCCCO3)c1ccc2nonc2c1

>  <smiles>  (36) 
O=C(Nc1ccc2cc3c(cc2c1)OCCCCO3)c1ccc2nonc2c1

$$$$
22:0
     RDKit          3D

 28 32  0  0  0  0  0  0  0  0999 V2000
   98.5030   87.0870   85.8840 C   0  0  0  0  0  0  0  0  0  0  0  0
   98.8220   88.1140   86.7790 C   0  0  0  0  0  3  0  0  0  0  0  0
   98.3870   89.4230   86.5460 C   0  0  0  0  0  3  0  0  0  0  0  0
   97.6250   89.7120   85.4130 C   0  0  0  0  0  0  0  0  0  0  0  0
   97.1940   91.0160   85.1670 C   0  0  0  0  0  3  0  0  0  0  0  0
   96.4230   91.3140   84.0370 C   0  0  0  0  0  0  0  0  0  0  0  0
   96.0830   90.2760   83.1240 C   0  0  0  0  0  0  0  0  0  0  0  0
   96.5400   88.9760   83.3710 C   0  0  0  0  0  3  0  0  0  0  0  0
   97.2990   88.6850   84.5040 C   0  0  0  0  0  0  0  0  0  0  0  0
   97.7380   87.3800   84.7430 C   0  0  0  0  0  3  0  0  0  0  0  0
   95.3520   90.4720   81.9430 O   0  0  0  0  0  0  0  0  0  0  0  0
   94.1880   91.2820   81.8270 C   0  0  0  0  0  2  0  0  0  0  0  0
   94.5680   92.7120   81.4940 C   0  0  0  0  0  2  0  0  0  0  0  0
   94.2280   93.6410   82.6530 C   0  0  0  0  0  2  0  0  0  0  0  0
   94.7460   93.1030   83.9780 C   0  0  0  0  0  2  0  0  0  0  0  0
   96.0820   92.6490   83.8280 O   0  0  0  0  0  0  0  0  0  0  0  0
  101.0110   85.8290   85.0090 O   0  0  0  0  0  0  0  0  0  0  0  0
  100.2030   85.1710   85.7200 C   0  0  0  0  0  0  0  0  0  0  0  0
   98.9710   85.7610   86.1620 N   0  0  0  0  0  2  0  0  0  0  0  0
  100.5270   83.7850   86.1000 C   0  0  0  0  0  0  0  0  0  0  0  0
   99.6100   83.0270   86.8760 C   0  0  0  0  0  3  0  0  0  0  0  0
   99.8980   81.7010   87.2510 C   0  0  0  0  0  3  0  0  0  0  0  0
  101.1150   81.1790   86.8280 C   0  0  0  0  0  0  0  0  0  0  0  0
  101.6300   79.9620   87.0440 N   0  0  0  0  0  0  0  0  0  0  0  0
  102.7900   79.9880   86.4330 O   0  0  0  0  0  0  0  0  0  0  0  0
  103.0650   81.1250   85.8410 N   0  0  0  0  0  0  0  0  0  0  0  0
  101.9960   81.8930   86.0900 C   0  0  0  0  0  0  0  0  0  0  0  0
  101.7510   83.2050   85.6970 C   0  0  0  0  0  3  0  0  0  0  0  0
  1 19  1  0
  1  2  2  0
  3  2  1  0
  4  3  2  0
  5  4  1  0
  6  5  2  0
  7  8  2  0
  7  6  1  0
  8  9  1  0
  9 10  2  0
  9  4  1  0
 10  1  1  0
 11  7  1  0
 12 11  1  0
 13 12  1  0
 13 14  1  0
 14 15  1  0
 16 15  1  0
 16  6  1  0
 17 18  2  0
 18 20  1  0
 18 19  1  0
 20 21  1  0
 21 22  2  0
 23 24  2  0
 23 22  1  0
 25 24  1  0
 26 27  2  0
 26 25  1  0
 27 23  1  0
 28 27  1  0
 28 20  2  0
M  RAD  8   2   2   3   2   5   2   8   2  10   2  12   3  13   3  14   3
M  RAD  5  15   3  19   2  21   2  22   2  28   2
M  END
>  <MODEL>  (37) 
1

>  <TORSDO>  (37) 
F 2

>  <SCORE>  (37) 
-12.036

>  <ligand_id>  (37) 
22

>  <original_smiles>  (37) 
O=C(Nc1ccc2cc3c(cc2c1)OCCCCO3)c1ccc2nonc2c1

>  <smiles>  (37) 
O=C(Nc1ccc2cc3c(cc2c1)OCCCCO3)c1ccc2nonc2c1

$$$$
22:0
     RDKit          3D

 28 32  0  0  0  0  0  0  0  0999 V2000
   98.5030   87.0870   85.8840 C   0  0  0  0  0  0  0  0  0  0  0  0
   98.8220   88.1140   86.7790 C   0  0  0  0  0  3  0  0  0  0  0  0
   98.3870   89.4230   86.5460 C   0  0  0  0  0  3  0  0  0  0  0  0
   97.6250   89.7120   85.4130 C   0  0  0  0  0  0  0  0  0  0  0  0
   97.1940   91.0160   85.1670 C   0  0  0  0  0  3  0  0  0  0  0  0
   96.4230   91.3140   84.0370 C   0  0  0  0  0  0  0  0  0  0  0  0
   96.0830   90.2760   83.1240 C   0  0  0  0  0  0  0  0  0  0  0  0
   96.5400   88.9760   83.3710 C   0  0  0  0  0  3  0  0  0  0  0  0
   97.2990   88.6850   84.5040 C   0  0  0  0  0  0  0  0  0  0  0  0
   97.7380   87.3800   84.7430 C   0  0  0  0  0  3  0  0  0  0  0  0
   95.3520   90.4720   81.9430 O   0  0  0  0  0  0  0  0  0  0  0  0
   94.1880   91.2820   81.8270 C   0  0  0  0  0  2  0  0  0  0  0  0
   94.5680   92.7120   81.4940 C   0  0  0  0  0  2  0  0  0  0  0  0
   94.2280   93.6410   82.6530 C   0  0  0  0  0  2  0  0  0  0  0  0
   94.7460   93.1030   83.9780 C   0  0  0  0  0  2  0  0  0  0  0  0
   96.0820   92.6490   83.8280 O   0  0  0  0  0  0  0  0  0  0  0  0
  101.0110   85.8290   85.0090 O   0  0  0  0  0  0  0  0  0  0  0  0
  100.2030   85.1710   85.7200 C   0  0  0  0  0  0  0  0  0  0  0  0
   98.9710   85.7610   86.1620 N   0  0  0  0  0  2  0  0  0  0  0  0
  100.5270   83.7850   86.1000 C   0  0  0  0  0  0  0  0  0  0  0  0
   99.6100   83.0270   86.8760 C   0  0  0  0  0  3  0  0  0  0  0  0
   99.8980   81.7010   87.2510 C   0  0  0  0  0  3  0  0  0  0  0  0
  101.1150   81.1790   86.8280 C   0  0  0  0  0  0  0  0  0  0  0  0
  101.6300   79.9620   87.0440 N   0  0  0  0  0  0  0  0  0  0  0  0
  102.7900   79.9880   86.4330 O   0  0  0  0  0  0  0  0  0  0  0  0
  103.0650   81.1250   85.8410 N   0  0  0  0  0  0  0  0  0  0  0  0
  101.9960   81.8930   86.0900 C   0  0  0  0  0  0  0  0  0  0  0  0
  101.7510   83.2050   85.6970 C   0  0  0  0  0  3  0  0  0  0  0  0
  1 19  1  0
  1  2  2  0
  3  2  1  0
  4  3  2  0
  5  4  1  0
  6  5  2  0
  7  8  2  0
  7  6  1  0
  8  9  1  0
  9 10  2  0
  9  4  1  0
 10  1  1  0
 11  7  1  0
 12 11  1  0
 13 12  1  0
 13 14  1  0
 14 15  1  0
 16 15  1  0
 16  6  1  0
 17 18  2  0
 18 20  1  0
 18 19  1  0
 20 21  1  0
 21 22  2  0
 23 24  2  0
 23 22  1  0
 25 24  1  0
 26 27  2  0
 26 25  1  0
 27 23  1  0
 28 27  1  0
 28 20  2  0
M  RAD  8   2   2   3   2   5   2   8   2  10   2  12   3  13   3  14   3
M  RAD  5  15   3  19   2  21   2  22   2  28   2
M  END
>  <MODEL>  (38) 
1

>  <TORSDO>  (38) 
F 2

>  <SCORE>  (38) 
-12.036

>  <ligand_id>  (38) 
22

>  <original_smiles>  (38) 
O=C(Nc1ccc2cc3c(cc2c1)OCCCCO3)c1ccc2nonc2c1

>  <smiles>  (38) 
O=C(Nc1ccc2cc3c(cc2c1)OCCCCO3)c1ccc2nonc2c1

$$$$
22:0
     RDKit          3D

 28 32  0  0  0  0  0  0  0  0999 V2000
   98.5030   87.0870   85.8840 C   0  0  0  0  0  0  0  0  0  0  0  0
   98.8220   88.1140   86.7790 C   0  0  0  0  0  3  0  0  0  0  0  0
   98.3870   89.4230   86.5460 C   0  0  0  0  0  3  0  0  0  0  0  0
   97.6250   89.7120   85.4130 C   0  0  0  0  0  0  0  0  0  0  0  0
   97.1940   91.0160   85.1670 C   0  0  0  0  0  3  0  0  0  0  0  0
   96.4230   91.3140   84.0370 C   0  0  0  0  0  0  0  0  0  0  0  0
   96.0830   90.2760   83.1240 C   0  0  0  0  0  0  0  0  0  0  0  0
   96.5400   88.9760   83.3710 C   0  0  0  0  0  3  0  0  0  0  0  0
   97.2990   88.6850   84.5040 C   0  0  0  0  0  0  0  0  0  0  0  0
   97.7380   87.3800   84.7430 C   0  0  0  0  0  3  0  0  0  0  0  0
   95.3520   90.4720   81.9430 O   0  0  0  0  0  0  0  0  0  0  0  0
   94.1880   91.2820   81.8270 C   0  0  0  0  0  2  0  0  0  0  0  0
   94.5680   92.7120   81.4940 C   0  0  0  0  0  2  0  0  0  0  0  0
   94.2280   93.6410   82.6530 C   0  0  0  0  0  2  0  0  0  0  0  0
   94.7460   93.1030   83.9780 C   0  0  0  0  0  2  0  0  0  0  0  0
   96.0820   92.6490   83.8280 O   0  0  0  0  0  0  0  0  0  0  0  0
  101.0110   85.8290   85.0090 O   0  0  0  0  0  0  0  0  0  0  0  0
  100.2030   85.1710   85.7200 C   0  0  0  0  0  0  0  0  0  0  0  0
   98.9710   85.7610   86.1620 N   0  0  0  0  0  2  0  0  0  0  0  0
  100.5270   83.7850   86.1000 C   0  0  0  0  0  0  0  0  0  0  0  0
   99.6100   83.0270   86.8760 C   0  0  0  0  0  3  0  0  0  0  0  0
   99.8980   81.7010   87.2510 C   0  0  0  0  0  3  0  0  0  0  0  0
  101.1150   81.1790   86.8280 C   0  0  0  0  0  0  0  0  0  0  0  0
  101.6300   79.9620   87.0440 N   0  0  0  0  0  0  0  0  0  0  0  0
  102.7900   79.9880   86.4330 O   0  0  0  0  0  0  0  0  0  0  0  0
  103.0650   81.1250   85.8410 N   0  0  0  0  0  0  0  0  0  0  0  0
  101.9960   81.8930   86.0900 C   0  0  0  0  0  0  0  0  0  0  0  0
  101.7510   83.2050   85.6970 C   0  0  0  0  0  3  0  0  0  0  0  0
  1 19  1  0
  1  2  2  0
  3  2  1  0
  4  3  2  0
  5  4  1  0
  6  5  2  0
  7  8  2  0
  7  6  1  0
  8  9  1  0
  9 10  2  0
  9  4  1  0
 10  1  1  0
 11  7  1  0
 12 11  1  0
 13 12  1  0
 13 14  1  0
 14 15  1  0
 16 15  1  0
 16  6  1  0
 17 18  2  0
 18 20  1  0
 18 19  1  0
 20 21  1  0
 21 22  2  0
 23 24  2  0
 23 22  1  0
 25 24  1  0
 26 27  2  0
 26 25  1  0
 27 23  1  0
 28 27  1  0
 28 20  2  0
M  RAD  8   2   2   3   2   5   2   8   2  10   2  12   3  13   3  14   3
M  RAD  5  15   3  19   2  21   2  22   2  28   2
M  END
>  <MODEL>  (39) 
1

>  <TORSDO>  (39) 
F 2

>  <SCORE>  (39) 
-12.036

>  <ligand_id>  (39) 
22

>  <original_smiles>  (39) 
O=C(Nc1ccc2cc3c(cc2c1)OCCCCO3)c1ccc2nonc2c1

>  <smiles>  (39) 
O=C(Nc1ccc2cc3c(cc2c1)OCCCCO3)c1ccc2nonc2c1

$$$$
22:0
     RDKit          3D

 28 32  0  0  0  0  0  0  0  0999 V2000
   98.5030   87.0870   85.8840 C   0  0  0  0  0  0  0  0  0  0  0  0
   98.8220   88.1140   86.7790 C   0  0  0  0  0  3  0  0  0  0  0  0
   98.3870   89.4230   86.5460 C   0  0  0  0  0  3  0  0  0  0  0  0
   97.6250   89.7120   85.4130 C   0  0  0  0  0  0  0  0  0  0  0  0
   97.1940   91.0160   85.1670 C   0  0  0  0  0  3  0  0  0  0  0  0
   96.4230   91.3140   84.0370 C   0  0  0  0  0  0  0  0  0  0  0  0
   96.0830   90.2760   83.1240 C   0  0  0  0  0  0  0  0  0  0  0  0
   96.5400   88.9760   83.3710 C   0  0  0  0  0  3  0  0  0  0  0  0
   97.2990   88.6850   84.5040 C   0  0  0  0  0  0  0  0  0  0  0  0
   97.7380   87.3800   84.7430 C   0  0  0  0  0  3  0  0  0  0  0  0
   95.3520   90.4720   81.9430 O   0  0  0  0  0  0  0  0  0  0  0  0
   94.1880   91.2820   81.8270 C   0  0  0  0  0  2  0  0  0  0  0  0
   94.5680   92.7120   81.4940 C   0  0  0  0  0  2  0  0  0  0  0  0
   94.2280   93.6410   82.6530 C   0  0  0  0  0  2  0  0  0  0  0  0
   94.7460   93.1030   83.9780 C   0  0  0  0  0  2  0  0  0  0  0  0
   96.0820   92.6490   83.8280 O   0  0  0  0  0  0  0  0  0  0  0  0
  101.0110   85.8290   85.0090 O   0  0  0  0  0  0  0  0  0  0  0  0
  100.2030   85.1710   85.7200 C   0  0  0  0  0  0  0  0  0  0  0  0
   98.9710   85.7610   86.1620 N   0  0  0  0  0  2  0  0  0  0  0  0
  100.5270   83.7850   86.1000 C   0  0  0  0  0  0  0  0  0  0  0  0
   99.6100   83.0270   86.8760 C   0  0  0  0  0  3  0  0  0  0  0  0
   99.8980   81.7010   87.2510 C   0  0  0  0  0  3  0  0  0  0  0  0
  101.1150   81.1790   86.8280 C   0  0  0  0  0  0  0  0  0  0  0  0
  101.6300   79.9620   87.0440 N   0  0  0  0  0  0  0  0  0  0  0  0
  102.7900   79.9880   86.4330 O   0  0  0  0  0  0  0  0  0  0  0  0
  103.0650   81.1250   85.8410 N   0  0  0  0  0  0  0  0  0  0  0  0
  101.9960   81.8930   86.0900 C   0  0  0  0  0  0  0  0  0  0  0  0
  101.7510   83.2050   85.6970 C   0  0  0  0  0  3  0  0  0  0  0  0
  1 19  1  0
  1  2  2  0
  3  2  1  0
  4  3  2  0
  5  4  1  0
  6  5  2  0
  7  8  2  0
  7  6  1  0
  8  9  1  0
  9 10  2  0
  9  4  1  0
 10  1  1  0
 11  7  1  0
 12 11  1  0
 13 12  1  0
 13 14  1  0
 14 15  1  0
 16 15  1  0
 16  6  1  0
 17 18  2  0
 18 20  1  0
 18 19  1  0
 20 21  1  0
 21 22  2  0
 23 24  2  0
 23 22  1  0
 25 24  1  0
 26 27  2  0
 26 25  1  0
 27 23  1  0
 28 27  1  0
 28 20  2  0
M  RAD  8   2   2   3   2   5   2   8   2  10   2  12   3  13   3  14   3
M  RAD  5  15   3  19   2  21   2  22   2  28   2
M  END
>  <MODEL>  (40) 
1

>  <TORSDO>  (40) 
F 2

>  <SCORE>  (40) 
-12.036

>  <ligand_id>  (40) 
22

>  <original_smiles>  (40) 
O=C(Nc1ccc2cc3c(cc2c1)OCCCCO3)c1ccc2nonc2c1

>  <smiles>  (40) 
O=C(Nc1ccc2cc3c(cc2c1)OCCCCO3)c1ccc2nonc2c1

$$$$
22:0
     RDKit          3D

 28 32  0  0  0  0  0  0  0  0999 V2000
   98.5030   87.0870   85.8840 C   0  0  0  0  0  0  0  0  0  0  0  0
   98.8220   88.1140   86.7790 C   0  0  0  0  0  3  0  0  0  0  0  0
   98.3870   89.4230   86.5460 C   0  0  0  0  0  3  0  0  0  0  0  0
   97.6250   89.7120   85.4130 C   0  0  0  0  0  0  0  0  0  0  0  0
   97.1940   91.0160   85.1670 C   0  0  0  0  0  3  0  0  0  0  0  0
   96.4230   91.3140   84.0370 C   0  0  0  0  0  0  0  0  0  0  0  0
   96.0830   90.2760   83.1240 C   0  0  0  0  0  0  0  0  0  0  0  0
   96.5400   88.9760   83.3710 C   0  0  0  0  0  3  0  0  0  0  0  0
   97.2990   88.6850   84.5040 C   0  0  0  0  0  0  0  0  0  0  0  0
   97.7380   87.3800   84.7430 C   0  0  0  0  0  3  0  0  0  0  0  0
   95.3520   90.4720   81.9430 O   0  0  0  0  0  0  0  0  0  0  0  0
   94.1880   91.2820   81.8270 C   0  0  0  0  0  2  0  0  0  0  0  0
   94.5680   92.7120   81.4940 C   0  0  0  0  0  2  0  0  0  0  0  0
   94.2280   93.6410   82.6530 C   0  0  0  0  0  2  0  0  0  0  0  0
   94.7460   93.1030   83.9780 C   0  0  0  0  0  2  0  0  0  0  0  0
   96.0820   92.6490   83.8280 O   0  0  0  0  0  0  0  0  0  0  0  0
  101.0110   85.8290   85.0090 O   0  0  0  0  0  0  0  0  0  0  0  0
  100.2030   85.1710   85.7200 C   0  0  0  0  0  0  0  0  0  0  0  0
   98.9710   85.7610   86.1620 N   0  0  0  0  0  2  0  0  0  0  0  0
  100.5270   83.7850   86.1000 C   0  0  0  0  0  0  0  0  0  0  0  0
   99.6100   83.0270   86.8760 C   0  0  0  0  0  3  0  0  0  0  0  0
   99.8980   81.7010   87.2510 C   0  0  0  0  0  3  0  0  0  0  0  0
  101.1150   81.1790   86.8280 C   0  0  0  0  0  0  0  0  0  0  0  0
  101.6300   79.9620   87.0440 N   0  0  0  0  0  0  0  0  0  0  0  0
  102.7900   79.9880   86.4330 O   0  0  0  0  0  0  0  0  0  0  0  0
  103.0650   81.1250   85.8410 N   0  0  0  0  0  0  0  0  0  0  0  0
  101.9960   81.8930   86.0900 C   0  0  0  0  0  0  0  0  0  0  0  0
  101.7510   83.2050   85.6970 C   0  0  0  0  0  3  0  0  0  0  0  0
  1 19  1  0
  1  2  2  0
  3  2  1  0
  4  3  2  0
  5  4  1  0
  6  5  2  0
  7  8  2  0
  7  6  1  0
  8  9  1  0
  9 10  2  0
  9  4  1  0
 10  1  1  0
 11  7  1  0
 12 11  1  0
 13 12  1  0
 13 14  1  0
 14 15  1  0
 16 15  1  0
 16  6  1  0
 17 18  2  0
 18 20  1  0
 18 19  1  0
 20 21  1  0
 21 22  2  0
 23 24  2  0
 23 22  1  0
 25 24  1  0
 26 27  2  0
 26 25  1  0
 27 23  1  0
 28 27  1  0
 28 20  2  0
M  RAD  8   2   2   3   2   5   2   8   2  10   2  12   3  13   3  14   3
M  RAD  5  15   3  19   2  21   2  22   2  28   2
M  END
>  <MODEL>  (41) 
1

>  <TORSDO>  (41) 
F 2

>  <SCORE>  (41) 
-12.036

>  <ligand_id>  (41) 
22

>  <original_smiles>  (41) 
O=C(Nc1ccc2cc3c(cc2c1)OCCCCO3)c1ccc2nonc2c1

>  <smiles>  (41) 
O=C(Nc1ccc2cc3c(cc2c1)OCCCCO3)c1ccc2nonc2c1

$$$$
22:0
     RDKit          3D

 28 32  0  0  0  0  0  0  0  0999 V2000
   98.5030   87.0870   85.8840 C   0  0  0  0  0  0  0  0  0  0  0  0
   98.8220   88.1140   86.7790 C   0  0  0  0  0  3  0  0  0  0  0  0
   98.3870   89.4230   86.5460 C   0  0  0  0  0  3  0  0  0  0  0  0
   97.6250   89.7120   85.4130 C   0  0  0  0  0  0  0  0  0  0  0  0
   97.1940   91.0160   85.1670 C   0  0  0  0  0  3  0  0  0  0  0  0
   96.4230   91.3140   84.0370 C   0  0  0  0  0  0  0  0  0  0  0  0
   96.0830   90.2760   83.1240 C   0  0  0  0  0  0  0  0  0  0  0  0
   96.5400   88.9760   83.3710 C   0  0  0  0  0  3  0  0  0  0  0  0
   97.2990   88.6850   84.5040 C   0  0  0  0  0  0  0  0  0  0  0  0
   97.7380   87.3800   84.7430 C   0  0  0  0  0  3  0  0  0  0  0  0
   95.3520   90.4720   81.9430 O   0  0  0  0  0  0  0  0  0  0  0  0
   94.1880   91.2820   81.8270 C   0  0  0  0  0  2  0  0  0  0  0  0
   94.5680   92.7120   81.4940 C   0  0  0  0  0  2  0  0  0  0  0  0
   94.2280   93.6410   82.6530 C   0  0  0  0  0  2  0  0  0  0  0  0
   94.7460   93.1030   83.9780 C   0  0  0  0  0  2  0  0  0  0  0  0
   96.0820   92.6490   83.8280 O   0  0  0  0  0  0  0  0  0  0  0  0
  101.0110   85.8290   85.0090 O   0  0  0  0  0  0  0  0  0  0  0  0
  100.2030   85.1710   85.7200 C   0  0  0  0  0  0  0  0  0  0  0  0
   98.9710   85.7610   86.1620 N   0  0  0  0  0  2  0  0  0  0  0  0
  100.5270   83.7850   86.1000 C   0  0  0  0  0  0  0  0  0  0  0  0
   99.6100   83.0270   86.8760 C   0  0  0  0  0  3  0  0  0  0  0  0
   99.8980   81.7010   87.2510 C   0  0  0  0  0  3  0  0  0  0  0  0
  101.1150   81.1790   86.8280 C   0  0  0  0  0  0  0  0  0  0  0  0
  101.6300   79.9620   87.0440 N   0  0  0  0  0  0  0  0  0  0  0  0
  102.7900   79.9880   86.4330 O   0  0  0  0  0  0  0  0  0  0  0  0
  103.0650   81.1250   85.8410 N   0  0  0  0  0  0  0  0  0  0  0  0
  101.9960   81.8930   86.0900 C   0  0  0  0  0  0  0  0  0  0  0  0
  101.7510   83.2050   85.6970 C   0  0  0  0  0  3  0  0  0  0  0  0
  1 19  1  0
  1  2  2  0
  3  2  1  0
  4  3  2  0
  5  4  1  0
  6  5  2  0
  7  8  2  0
  7  6  1  0
  8  9  1  0
  9 10  2  0
  9  4  1  0
 10  1  1  0
 11  7  1  0
 12 11  1  0
 13 12  1  0
 13 14  1  0
 14 15  1  0
 16 15  1  0
 16  6  1  0
 17 18  2  0
 18 20  1  0
 18 19  1  0
 20 21  1  0
 21 22  2  0
 23 24  2  0
 23 22  1  0
 25 24  1  0
 26 27  2  0
 26 25  1  0
 27 23  1  0
 28 27  1  0
 28 20  2  0
M  RAD  8   2   2   3   2   5   2   8   2  10   2  12   3  13   3  14   3
M  RAD  5  15   3  19   2  21   2  22   2  28   2
M  END
>  <MODEL>  (42) 
1

>  <TORSDO>  (42) 
F 2

>  <SCORE>  (42) 
-12.036

>  <ligand_id>  (42) 
22

>  <original_smiles>  (42) 
O=C(Nc1ccc2cc3c(cc2c1)OCCCCO3)c1ccc2nonc2c1

>  <smiles>  (42) 
O=C(Nc1ccc2cc3c(cc2c1)OCCCCO3)c1ccc2nonc2c1

$$$$
22:0
     RDKit          3D

 28 32  0  0  0  0  0  0  0  0999 V2000
   98.5030   87.0870   85.8840 C   0  0  0  0  0  0  0  0  0  0  0  0
   98.8220   88.1140   86.7790 C   0  0  0  0  0  3  0  0  0  0  0  0
   98.3870   89.4230   86.5460 C   0  0  0  0  0  3  0  0  0  0  0  0
   97.6250   89.7120   85.4130 C   0  0  0  0  0  0  0  0  0  0  0  0
   97.1940   91.0160   85.1670 C   0  0  0  0  0  3  0  0  0  0  0  0
   96.4230   91.3140   84.0370 C   0  0  0  0  0  0  0  0  0  0  0  0
   96.0830   90.2760   83.1240 C   0  0  0  0  0  0  0  0  0  0  0  0
   96.5400   88.9760   83.3710 C   0  0  0  0  0  3  0  0  0  0  0  0
   97.2990   88.6850   84.5040 C   0  0  0  0  0  0  0  0  0  0  0  0
   97.7380   87.3800   84.7430 C   0  0  0  0  0  3  0  0  0  0  0  0
   95.3520   90.4720   81.9430 O   0  0  0  0  0  0  0  0  0  0  0  0
   94.1880   91.2820   81.8270 C   0  0  0  0  0  2  0  0  0  0  0  0
   94.5680   92.7120   81.4940 C   0  0  0  0  0  2  0  0  0  0  0  0
   94.2280   93.6410   82.6530 C   0  0  0  0  0  2  0  0  0  0  0  0
   94.7460   93.1030   83.9780 C   0  0  0  0  0  2  0  0  0  0  0  0
   96.0820   92.6490   83.8280 O   0  0  0  0  0  0  0  0  0  0  0  0
  101.0110   85.8290   85.0090 O   0  0  0  0  0  0  0  0  0  0  0  0
  100.2030   85.1710   85.7200 C   0  0  0  0  0  0  0  0  0  0  0  0
   98.9710   85.7610   86.1620 N   0  0  0  0  0  2  0  0  0  0  0  0
  100.5270   83.7850   86.1000 C   0  0  0  0  0  0  0  0  0  0  0  0
   99.6100   83.0270   86.8760 C   0  0  0  0  0  3  0  0  0  0  0  0
   99.8980   81.7010   87.2510 C   0  0  0  0  0  3  0  0  0  0  0  0
  101.1150   81.1790   86.8280 C   0  0  0  0  0  0  0  0  0  0  0  0
  101.6300   79.9620   87.0440 N   0  0  0  0  0  0  0  0  0  0  0  0
  102.7900   79.9880   86.4330 O   0  0  0  0  0  0  0  0  0  0  0  0
  103.0650   81.1250   85.8410 N   0  0  0  0  0  0  0  0  0  0  0  0
  101.9960   81.8930   86.0900 C   0  0  0  0  0  0  0  0  0  0  0  0
  101.7510   83.2050   85.6970 C   0  0  0  0  0  3  0  0  0  0  0  0
  1 19  1  0
  1  2  2  0
  3  2  1  0
  4  3  2  0
  5  4  1  0
  6  5  2  0
  7  8  2  0
  7  6  1  0
  8  9  1  0
  9 10  2  0
  9  4  1  0
 10  1  1  0
 11  7  1  0
 12 11  1  0
 13 12  1  0
 13 14  1  0
 14 15  1  0
 16 15  1  0
 16  6  1  0
 17 18  2  0
 18 20  1  0
 18 19  1  0
 20 21  1  0
 21 22  2  0
 23 24  2  0
 23 22  1  0
 25 24  1  0
 26 27  2  0
 26 25  1  0
 27 23  1  0
 28 27  1  0
 28 20  2  0
M  RAD  8   2   2   3   2   5   2   8   2  10   2  12   3  13   3  14   3
M  RAD  5  15   3  19   2  21   2  22   2  28   2
M  END
>  <MODEL>  (43) 
1

>  <TORSDO>  (43) 
F 2

>  <SCORE>  (43) 
-12.036

>  <ligand_id>  (43) 
22

>  <original_smiles>  (43) 
O=C(Nc1ccc2cc3c(cc2c1)OCCCCO3)c1ccc2nonc2c1

>  <smiles>  (43) 
O=C(Nc1ccc2cc3c(cc2c1)OCCCCO3)c1ccc2nonc2c1

$$$$
22:0
     RDKit          3D

 28 32  0  0  0  0  0  0  0  0999 V2000
   98.5030   87.0870   85.8840 C   0  0  0  0  0  0  0  0  0  0  0  0
   98.8220   88.1140   86.7790 C   0  0  0  0  0  3  0  0  0  0  0  0
   98.3870   89.4230   86.5460 C   0  0  0  0  0  3  0  0  0  0  0  0
   97.6250   89.7120   85.4130 C   0  0  0  0  0  0  0  0  0  0  0  0
   97.1940   91.0160   85.1670 C   0  0  0  0  0  3  0  0  0  0  0  0
   96.4230   91.3140   84.0370 C   0  0  0  0  0  0  0  0  0  0  0  0
   96.0830   90.2760   83.1240 C   0  0  0  0  0  0  0  0  0  0  0  0
   96.5400   88.9760   83.3710 C   0  0  0  0  0  3  0  0  0  0  0  0
   97.2990   88.6850   84.5040 C   0  0  0  0  0  0  0  0  0  0  0  0
   97.7380   87.3800   84.7430 C   0  0  0  0  0  3  0  0  0  0  0  0
   95.3520   90.4720   81.9430 O   0  0  0  0  0  0  0  0  0  0  0  0
   94.1880   91.2820   81.8270 C   0  0  0  0  0  2  0  0  0  0  0  0
   94.5680   92.7120   81.4940 C   0  0  0  0  0  2  0  0  0  0  0  0
   94.2280   93.6410   82.6530 C   0  0  0  0  0  2  0  0  0  0  0  0
   94.7460   93.1030   83.9780 C   0  0  0  0  0  2  0  0  0  0  0  0
   96.0820   92.6490   83.8280 O   0  0  0  0  0  0  0  0  0  0  0  0
  101.0110   85.8290   85.0090 O   0  0  0  0  0  0  0  0  0  0  0  0
  100.2030   85.1710   85.7200 C   0  0  0  0  0  0  0  0  0  0  0  0
   98.9710   85.7610   86.1620 N   0  0  0  0  0  2  0  0  0  0  0  0
  100.5270   83.7850   86.1000 C   0  0  0  0  0  0  0  0  0  0  0  0
   99.6100   83.0270   86.8760 C   0  0  0  0  0  3  0  0  0  0  0  0
   99.8980   81.7010   87.2510 C   0  0  0  0  0  3  0  0  0  0  0  0
  101.1150   81.1790   86.8280 C   0  0  0  0  0  0  0  0  0  0  0  0
  101.6300   79.9620   87.0440 N   0  0  0  0  0  0  0  0  0  0  0  0
  102.7900   79.9880   86.4330 O   0  0  0  0  0  0  0  0  0  0  0  0
  103.0650   81.1250   85.8410 N   0  0  0  0  0  0  0  0  0  0  0  0
  101.9960   81.8930   86.0900 C   0  0  0  0  0  0  0  0  0  0  0  0
  101.7510   83.2050   85.6970 C   0  0  0  0  0  3  0  0  0  0  0  0
  1 19  1  0
  1  2  2  0
  3  2  1  0
  4  3  2  0
  5  4  1  0
  6  5  2  0
  7  8  2  0
  7  6  1  0
  8  9  1  0
  9 10  2  0
  9  4  1  0
 10  1  1  0
 11  7  1  0
 12 11  1  0
 13 12  1  0
 13 14  1  0
 14 15  1  0
 16 15  1  0
 16  6  1  0
 17 18  2  0
 18 20  1  0
 18 19  1  0
 20 21  1  0
 21 22  2  0
 23 24  2  0
 23 22  1  0
 25 24  1  0
 26 27  2  0
 26 25  1  0
 27 23  1  0
 28 27  1  0
 28 20  2  0
M  RAD  8   2   2   3   2   5   2   8   2  10   2  12   3  13   3  14   3
M  RAD  5  15   3  19   2  21   2  22   2  28   2
M  END
>  <MODEL>  (44) 
1

>  <TORSDO>  (44) 
F 2

>  <SCORE>  (44) 
-12.036

>  <ligand_id>  (44) 
22

>  <original_smiles>  (44) 
O=C(Nc1ccc2cc3c(cc2c1)OCCCCO3)c1ccc2nonc2c1

>  <smiles>  (44) 
O=C(Nc1ccc2cc3c(cc2c1)OCCCCO3)c1ccc2nonc2c1

$$$$
22:0
     RDKit          3D

 28 32  0  0  0  0  0  0  0  0999 V2000
   98.5030   87.0870   85.8840 C   0  0  0  0  0  0  0  0  0  0  0  0
   98.8220   88.1140   86.7790 C   0  0  0  0  0  3  0  0  0  0  0  0
   98.3870   89.4230   86.5460 C   0  0  0  0  0  3  0  0  0  0  0  0
   97.6250   89.7120   85.4130 C   0  0  0  0  0  0  0  0  0  0  0  0
   97.1940   91.0160   85.1670 C   0  0  0  0  0  3  0  0  0  0  0  0
   96.4230   91.3140   84.0370 C   0  0  0  0  0  0  0  0  0  0  0  0
   96.0830   90.2760   83.1240 C   0  0  0  0  0  0  0  0  0  0  0  0
   96.5400   88.9760   83.3710 C   0  0  0  0  0  3  0  0  0  0  0  0
   97.2990   88.6850   84.5040 C   0  0  0  0  0  0  0  0  0  0  0  0
   97.7380   87.3800   84.7430 C   0  0  0  0  0  3  0  0  0  0  0  0
   95.3520   90.4720   81.9430 O   0  0  0  0  0  0  0  0  0  0  0  0
   94.1880   91.2820   81.8270 C   0  0  0  0  0  2  0  0  0  0  0  0
   94.5680   92.7120   81.4940 C   0  0  0  0  0  2  0  0  0  0  0  0
   94.2280   93.6410   82.6530 C   0  0  0  0  0  2  0  0  0  0  0  0
   94.7460   93.1030   83.9780 C   0  0  0  0  0  2  0  0  0  0  0  0
   96.0820   92.6490   83.8280 O   0  0  0  0  0  0  0  0  0  0  0  0
  101.0110   85.8290   85.0090 O   0  0  0  0  0  0  0  0  0  0  0  0
  100.2030   85.1710   85.7200 C   0  0  0  0  0  0  0  0  0  0  0  0
   98.9710   85.7610   86.1620 N   0  0  0  0  0  2  0  0  0  0  0  0
  100.5270   83.7850   86.1000 C   0  0  0  0  0  0  0  0  0  0  0  0
   99.6100   83.0270   86.8760 C   0  0  0  0  0  3  0  0  0  0  0  0
   99.8980   81.7010   87.2510 C   0  0  0  0  0  3  0  0  0  0  0  0
  101.1150   81.1790   86.8280 C   0  0  0  0  0  0  0  0  0  0  0  0
  101.6300   79.9620   87.0440 N   0  0  0  0  0  0  0  0  0  0  0  0
  102.7900   79.9880   86.4330 O   0  0  0  0  0  0  0  0  0  0  0  0
  103.0650   81.1250   85.8410 N   0  0  0  0  0  0  0  0  0  0  0  0
  101.9960   81.8930   86.0900 C   0  0  0  0  0  0  0  0  0  0  0  0
  101.7510   83.2050   85.6970 C   0  0  0  0  0  3  0  0  0  0  0  0
  1 19  1  0
  1  2  2  0
  3  2  1  0
  4  3  2  0
  5  4  1  0
  6  5  2  0
  7  8  2  0
  7  6  1  0
  8  9  1  0
  9 10  2  0
  9  4  1  0
 10  1  1  0
 11  7  1  0
 12 11  1  0
 13 12  1  0
 13 14  1  0
 14 15  1  0
 16 15  1  0
 16  6  1  0
 17 18  2  0
 18 20  1  0
 18 19  1  0
 20 21  1  0
 21 22  2  0
 23 24  2  0
 23 22  1  0
 25 24  1  0
 26 27  2  0
 26 25  1  0
 27 23  1  0
 28 27  1  0
 28 20  2  0
M  RAD  8   2   2   3   2   5   2   8   2  10   2  12   3  13   3  14   3
M  RAD  5  15   3  19   2  21   2  22   2  28   2
M  END
>  <MODEL>  (45) 
1

>  <TORSDO>  (45) 
F 2

>  <SCORE>  (45) 
-12.036

>  <ligand_id>  (45) 
22

>  <original_smiles>  (45) 
O=C(Nc1ccc2cc3c(cc2c1)OCCCCO3)c1ccc2nonc2c1

>  <smiles>  (45) 
O=C(Nc1ccc2cc3c(cc2c1)OCCCCO3)c1ccc2nonc2c1

$$$$
22:0
     RDKit          3D

 28 32  0  0  0  0  0  0  0  0999 V2000
   98.5030   87.0870   85.8840 C   0  0  0  0  0  0  0  0  0  0  0  0
   98.8220   88.1140   86.7790 C   0  0  0  0  0  3  0  0  0  0  0  0
   98.3870   89.4230   86.5460 C   0  0  0  0  0  3  0  0  0  0  0  0
   97.6250   89.7120   85.4130 C   0  0  0  0  0  0  0  0  0  0  0  0
   97.1940   91.0160   85.1670 C   0  0  0  0  0  3  0  0  0  0  0  0
   96.4230   91.3140   84.0370 C   0  0  0  0  0  0  0  0  0  0  0  0
   96.0830   90.2760   83.1240 C   0  0  0  0  0  0  0  0  0  0  0  0
   96.5400   88.9760   83.3710 C   0  0  0  0  0  3  0  0  0  0  0  0
   97.2990   88.6850   84.5040 C   0  0  0  0  0  0  0  0  0  0  0  0
   97.7380   87.3800   84.7430 C   0  0  0  0  0  3  0  0  0  0  0  0
   95.3520   90.4720   81.9430 O   0  0  0  0  0  0  0  0  0  0  0  0
   94.1880   91.2820   81.8270 C   0  0  0  0  0  2  0  0  0  0  0  0
   94.5680   92.7120   81.4940 C   0  0  0  0  0  2  0  0  0  0  0  0
   94.2280   93.6410   82.6530 C   0  0  0  0  0  2  0  0  0  0  0  0
   94.7460   93.1030   83.9780 C   0  0  0  0  0  2  0  0  0  0  0  0
   96.0820   92.6490   83.8280 O   0  0  0  0  0  0  0  0  0  0  0  0
  101.0110   85.8290   85.0090 O   0  0  0  0  0  0  0  0  0  0  0  0
  100.2030   85.1710   85.7200 C   0  0  0  0  0  0  0  0  0  0  0  0
   98.9710   85.7610   86.1620 N   0  0  0  0  0  2  0  0  0  0  0  0
  100.5270   83.7850   86.1000 C   0  0  0  0  0  0  0  0  0  0  0  0
   99.6100   83.0270   86.8760 C   0  0  0  0  0  3  0  0  0  0  0  0
   99.8980   81.7010   87.2510 C   0  0  0  0  0  3  0  0  0  0  0  0
  101.1150   81.1790   86.8280 C   0  0  0  0  0  0  0  0  0  0  0  0
  101.6300   79.9620   87.0440 N   0  0  0  0  0  0  0  0  0  0  0  0
  102.7900   79.9880   86.4330 O   0  0  0  0  0  0  0  0  0  0  0  0
  103.0650   81.1250   85.8410 N   0  0  0  0  0  0  0  0  0  0  0  0
  101.9960   81.8930   86.0900 C   0  0  0  0  0  0  0  0  0  0  0  0
  101.7510   83.2050   85.6970 C   0  0  0  0  0  3  0  0  0  0  0  0
  1 19  1  0
  1  2  2  0
  3  2  1  0
  4  3  2  0
  5  4  1  0
  6  5  2  0
  7  8  2  0
  7  6  1  0
  8  9  1  0
  9 10  2  0
  9  4  1  0
 10  1  1  0
 11  7  1  0
 12 11  1  0
 13 12  1  0
 13 14  1  0
 14 15  1  0
 16 15  1  0
 16  6  1  0
 17 18  2  0
 18 20  1  0
 18 19  1  0
 20 21  1  0
 21 22  2  0
 23 24  2  0
 23 22  1  0
 25 24  1  0
 26 27  2  0
 26 25  1  0
 27 23  1  0
 28 27  1  0
 28 20  2  0
M  RAD  8   2   2   3   2   5   2   8   2  10   2  12   3  13   3  14   3
M  RAD  5  15   3  19   2  21   2  22   2  28   2
M  END
>  <MODEL>  (46) 
1

>  <TORSDO>  (46) 
F 2

>  <SCORE>  (46) 
-12.036

>  <ligand_id>  (46) 
22

>  <original_smiles>  (46) 
O=C(Nc1ccc2cc3c(cc2c1)OCCCCO3)c1ccc2nonc2c1

>  <smiles>  (46) 
O=C(Nc1ccc2cc3c(cc2c1)OCCCCO3)c1ccc2nonc2c1

$$$$
22:0
     RDKit          3D

 28 32  0  0  0  0  0  0  0  0999 V2000
   98.5030   87.0870   85.8840 C   0  0  0  0  0  0  0  0  0  0  0  0
   98.8220   88.1140   86.7790 C   0  0  0  0  0  3  0  0  0  0  0  0
   98.3870   89.4230   86.5460 C   0  0  0  0  0  3  0  0  0  0  0  0
   97.6250   89.7120   85.4130 C   0  0  0  0  0  0  0  0  0  0  0  0
   97.1940   91.0160   85.1670 C   0  0  0  0  0  3  0  0  0  0  0  0
   96.4230   91.3140   84.0370 C   0  0  0  0  0  0  0  0  0  0  0  0
   96.0830   90.2760   83.1240 C   0  0  0  0  0  0  0  0  0  0  0  0
   96.5400   88.9760   83.3710 C   0  0  0  0  0  3  0  0  0  0  0  0
   97.2990   88.6850   84.5040 C   0  0  0  0  0  0  0  0  0  0  0  0
   97.7380   87.3800   84.7430 C   0  0  0  0  0  3  0  0  0  0  0  0
   95.3520   90.4720   81.9430 O   0  0  0  0  0  0  0  0  0  0  0  0
   94.1880   91.2820   81.8270 C   0  0  0  0  0  2  0  0  0  0  0  0
   94.5680   92.7120   81.4940 C   0  0  0  0  0  2  0  0  0  0  0  0
   94.2280   93.6410   82.6530 C   0  0  0  0  0  2  0  0  0  0  0  0
   94.7460   93.1030   83.9780 C   0  0  0  0  0  2  0  0  0  0  0  0
   96.0820   92.6490   83.8280 O   0  0  0  0  0  0  0  0  0  0  0  0
  101.0110   85.8290   85.0090 O   0  0  0  0  0  0  0  0  0  0  0  0
  100.2030   85.1710   85.7200 C   0  0  0  0  0  0  0  0  0  0  0  0
   98.9710   85.7610   86.1620 N   0  0  0  0  0  2  0  0  0  0  0  0
  100.5270   83.7850   86.1000 C   0  0  0  0  0  0  0  0  0  0  0  0
   99.6100   83.0270   86.8760 C   0  0  0  0  0  3  0  0  0  0  0  0
   99.8980   81.7010   87.2510 C   0  0  0  0  0  3  0  0  0  0  0  0
  101.1150   81.1790   86.8280 C   0  0  0  0  0  0  0  0  0  0  0  0
  101.6300   79.9620   87.0440 N   0  0  0  0  0  0  0  0  0  0  0  0
  102.7900   79.9880   86.4330 O   0  0  0  0  0  0  0  0  0  0  0  0
  103.0650   81.1250   85.8410 N   0  0  0  0  0  0  0  0  0  0  0  0
  101.9960   81.8930   86.0900 C   0  0  0  0  0  0  0  0  0  0  0  0
  101.7510   83.2050   85.6970 C   0  0  0  0  0  3  0  0  0  0  0  0
  1 19  1  0
  1  2  2  0
  3  2  1  0
  4  3  2  0
  5  4  1  0
  6  5  2  0
  7  8  2  0
  7  6  1  0
  8  9  1  0
  9 10  2  0
  9  4  1  0
 10  1  1  0
 11  7  1  0
 12 11  1  0
 13 12  1  0
 13 14  1  0
 14 15  1  0
 16 15  1  0
 16  6  1  0
 17 18  2  0
 18 20  1  0
 18 19  1  0
 20 21  1  0
 21 22  2  0
 23 24  2  0
 23 22  1  0
 25 24  1  0
 26 27  2  0
 26 25  1  0
 27 23  1  0
 28 27  1  0
 28 20  2  0
M  RAD  8   2   2   3   2   5   2   8   2  10   2  12   3  13   3  14   3
M  RAD  5  15   3  19   2  21   2  22   2  28   2
M  END
>  <MODEL>  (47) 
1

>  <TORSDO>  (47) 
F 2

>  <SCORE>  (47) 
-12.036

>  <ligand_id>  (47) 
22

>  <original_smiles>  (47) 
O=C(Nc1ccc2cc3c(cc2c1)OCCCCO3)c1ccc2nonc2c1

>  <smiles>  (47) 
O=C(Nc1ccc2cc3c(cc2c1)OCCCCO3)c1ccc2nonc2c1

$$$$
22:0
     RDKit          3D

 28 32  0  0  0  0  0  0  0  0999 V2000
   98.5030   87.0870   85.8840 C   0  0  0  0  0  0  0  0  0  0  0  0
   98.8220   88.1140   86.7790 C   0  0  0  0  0  3  0  0  0  0  0  0
   98.3870   89.4230   86.5460 C   0  0  0  0  0  3  0  0  0  0  0  0
   97.6250   89.7120   85.4130 C   0  0  0  0  0  0  0  0  0  0  0  0
   97.1940   91.0160   85.1670 C   0  0  0  0  0  3  0  0  0  0  0  0
   96.4230   91.3140   84.0370 C   0  0  0  0  0  0  0  0  0  0  0  0
   96.0830   90.2760   83.1240 C   0  0  0  0  0  0  0  0  0  0  0  0
   96.5400   88.9760   83.3710 C   0  0  0  0  0  3  0  0  0  0  0  0
   97.2990   88.6850   84.5040 C   0  0  0  0  0  0  0  0  0  0  0  0
   97.7380   87.3800   84.7430 C   0  0  0  0  0  3  0  0  0  0  0  0
   95.3520   90.4720   81.9430 O   0  0  0  0  0  0  0  0  0  0  0  0
   94.1880   91.2820   81.8270 C   0  0  0  0  0  2  0  0  0  0  0  0
   94.5680   92.7120   81.4940 C   0  0  0  0  0  2  0  0  0  0  0  0
   94.2280   93.6410   82.6530 C   0  0  0  0  0  2  0  0  0  0  0  0
   94.7460   93.1030   83.9780 C   0  0  0  0  0  2  0  0  0  0  0  0
   96.0820   92.6490   83.8280 O   0  0  0  0  0  0  0  0  0  0  0  0
  101.0110   85.8290   85.0090 O   0  0  0  0  0  0  0  0  0  0  0  0
  100.2030   85.1710   85.7200 C   0  0  0  0  0  0  0  0  0  0  0  0
   98.9710   85.7610   86.1620 N   0  0  0  0  0  2  0  0  0  0  0  0
  100.5270   83.7850   86.1000 C   0  0  0  0  0  0  0  0  0  0  0  0
   99.6100   83.0270   86.8760 C   0  0  0  0  0  3  0  0  0  0  0  0
   99.8980   81.7010   87.2510 C   0  0  0  0  0  3  0  0  0  0  0  0
  101.1150   81.1790   86.8280 C   0  0  0  0  0  0  0  0  0  0  0  0
  101.6300   79.9620   87.0440 N   0  0  0  0  0  0  0  0  0  0  0  0
  102.7900   79.9880   86.4330 O   0  0  0  0  0  0  0  0  0  0  0  0
  103.0650   81.1250   85.8410 N   0  0  0  0  0  0  0  0  0  0  0  0
  101.9960   81.8930   86.0900 C   0  0  0  0  0  0  0  0  0  0  0  0
  101.7510   83.2050   85.6970 C   0  0  0  0  0  3  0  0  0  0  0  0
  1 19  1  0
  1  2  2  0
  3  2  1  0
  4  3  2  0
  5  4  1  0
  6  5  2  0
  7  8  2  0
  7  6  1  0
  8  9  1  0
  9 10  2  0
  9  4  1  0
 10  1  1  0
 11  7  1  0
 12 11  1  0
 13 12  1  0
 13 14  1  0
 14 15  1  0
 16 15  1  0
 16  6  1  0
 17 18  2  0
 18 20  1  0
 18 19  1  0
 20 21  1  0
 21 22  2  0
 23 24  2  0
 23 22  1  0
 25 24  1  0
 26 27  2  0
 26 25  1  0
 27 23  1  0
 28 27  1  0
 28 20  2  0
M  RAD  8   2   2   3   2   5   2   8   2  10   2  12   3  13   3  14   3
M  RAD  5  15   3  19   2  21   2  22   2  28   2
M  END
>  <MODEL>  (48) 
1

>  <TORSDO>  (48) 
F 2

>  <SCORE>  (48) 
-12.036

>  <ligand_id>  (48) 
22

>  <original_smiles>  (48) 
O=C(Nc1ccc2cc3c(cc2c1)OCCCCO3)c1ccc2nonc2c1

>  <smiles>  (48) 
O=C(Nc1ccc2cc3c(cc2c1)OCCCCO3)c1ccc2nonc2c1

$$$$
22:0
     RDKit          3D

 28 32  0  0  0  0  0  0  0  0999 V2000
   98.5030   87.0870   85.8840 C   0  0  0  0  0  0  0  0  0  0  0  0
   98.8220   88.1140   86.7790 C   0  0  0  0  0  3  0  0  0  0  0  0
   98.3870   89.4230   86.5460 C   0  0  0  0  0  3  0  0  0  0  0  0
   97.6250   89.7120   85.4130 C   0  0  0  0  0  0  0  0  0  0  0  0
   97.1940   91.0160   85.1670 C   0  0  0  0  0  3  0  0  0  0  0  0
   96.4230   91.3140   84.0370 C   0  0  0  0  0  0  0  0  0  0  0  0
   96.0830   90.2760   83.1240 C   0  0  0  0  0  0  0  0  0  0  0  0
   96.5400   88.9760   83.3710 C   0  0  0  0  0  3  0  0  0  0  0  0
   97.2990   88.6850   84.5040 C   0  0  0  0  0  0  0  0  0  0  0  0
   97.7380   87.3800   84.7430 C   0  0  0  0  0  3  0  0  0  0  0  0
   95.3520   90.4720   81.9430 O   0  0  0  0  0  0  0  0  0  0  0  0
   94.1880   91.2820   81.8270 C   0  0  0  0  0  2  0  0  0  0  0  0
   94.5680   92.7120   81.4940 C   0  0  0  0  0  2  0  0  0  0  0  0
   94.2280   93.6410   82.6530 C   0  0  0  0  0  2  0  0  0  0  0  0
   94.7460   93.1030   83.9780 C   0  0  0  0  0  2  0  0  0  0  0  0
   96.0820   92.6490   83.8280 O   0  0  0  0  0  0  0  0  0  0  0  0
  101.0110   85.8290   85.0090 O   0  0  0  0  0  0  0  0  0  0  0  0
  100.2030   85.1710   85.7200 C   0  0  0  0  0  0  0  0  0  0  0  0
   98.9710   85.7610   86.1620 N   0  0  0  0  0  2  0  0  0  0  0  0
  100.5270   83.7850   86.1000 C   0  0  0  0  0  0  0  0  0  0  0  0
   99.6100   83.0270   86.8760 C   0  0  0  0  0  3  0  0  0  0  0  0
   99.8980   81.7010   87.2510 C   0  0  0  0  0  3  0  0  0  0  0  0
  101.1150   81.1790   86.8280 C   0  0  0  0  0  0  0  0  0  0  0  0
  101.6300   79.9620   87.0440 N   0  0  0  0  0  0  0  0  0  0  0  0
  102.7900   79.9880   86.4330 O   0  0  0  0  0  0  0  0  0  0  0  0
  103.0650   81.1250   85.8410 N   0  0  0  0  0  0  0  0  0  0  0  0
  101.9960   81.8930   86.0900 C   0  0  0  0  0  0  0  0  0  0  0  0
  101.7510   83.2050   85.6970 C   0  0  0  0  0  3  0  0  0  0  0  0
  1 19  1  0
  1  2  2  0
  3  2  1  0
  4  3  2  0
  5  4  1  0
  6  5  2  0
  7  8  2  0
  7  6  1  0
  8  9  1  0
  9 10  2  0
  9  4  1  0
 10  1  1  0
 11  7  1  0
 12 11  1  0
 13 12  1  0
 13 14  1  0
 14 15  1  0
 16 15  1  0
 16  6  1  0
 17 18  2  0
 18 20  1  0
 18 19  1  0
 20 21  1  0
 21 22  2  0
 23 24  2  0
 23 22  1  0
 25 24  1  0
 26 27  2  0
 26 25  1  0
 27 23  1  0
 28 27  1  0
 28 20  2  0
M  RAD  8   2   2   3   2   5   2   8   2  10   2  12   3  13   3  14   3
M  RAD  5  15   3  19   2  21   2  22   2  28   2
M  END
>  <MODEL>  (49) 
1

>  <TORSDO>  (49) 
F 2

>  <SCORE>  (49) 
-12.036

>  <ligand_id>  (49) 
22

>  <original_smiles>  (49) 
O=C(Nc1ccc2cc3c(cc2c1)OCCCCO3)c1ccc2nonc2c1

>  <smiles>  (49) 
O=C(Nc1ccc2cc3c(cc2c1)OCCCCO3)c1ccc2nonc2c1

$$$$
22:0
     RDKit          3D

 28 32  0  0  0  0  0  0  0  0999 V2000
   98.5030   87.0870   85.8840 C   0  0  0  0  0  0  0  0  0  0  0  0
   98.8220   88.1140   86.7790 C   0  0  0  0  0  3  0  0  0  0  0  0
   98.3870   89.4230   86.5460 C   0  0  0  0  0  3  0  0  0  0  0  0
   97.6250   89.7120   85.4130 C   0  0  0  0  0  0  0  0  0  0  0  0
   97.1940   91.0160   85.1670 C   0  0  0  0  0  3  0  0  0  0  0  0
   96.4230   91.3140   84.0370 C   0  0  0  0  0  0  0  0  0  0  0  0
   96.0830   90.2760   83.1240 C   0  0  0  0  0  0  0  0  0  0  0  0
   96.5400   88.9760   83.3710 C   0  0  0  0  0  3  0  0  0  0  0  0
   97.2990   88.6850   84.5040 C   0  0  0  0  0  0  0  0  0  0  0  0
   97.7380   87.3800   84.7430 C   0  0  0  0  0  3  0  0  0  0  0  0
   95.3520   90.4720   81.9430 O   0  0  0  0  0  0  0  0  0  0  0  0
   94.1880   91.2820   81.8270 C   0  0  0  0  0  2  0  0  0  0  0  0
   94.5680   92.7120   81.4940 C   0  0  0  0  0  2  0  0  0  0  0  0
   94.2280   93.6410   82.6530 C   0  0  0  0  0  2  0  0  0  0  0  0
   94.7460   93.1030   83.9780 C   0  0  0  0  0  2  0  0  0  0  0  0
   96.0820   92.6490   83.8280 O   0  0  0  0  0  0  0  0  0  0  0  0
  101.0110   85.8290   85.0090 O   0  0  0  0  0  0  0  0  0  0  0  0
  100.2030   85.1710   85.7200 C   0  0  0  0  0  0  0  0  0  0  0  0
   98.9710   85.7610   86.1620 N   0  0  0  0  0  2  0  0  0  0  0  0
  100.5270   83.7850   86.1000 C   0  0  0  0  0  0  0  0  0  0  0  0
   99.6100   83.0270   86.8760 C   0  0  0  0  0  3  0  0  0  0  0  0
   99.8980   81.7010   87.2510 C   0  0  0  0  0  3  0  0  0  0  0  0
  101.1150   81.1790   86.8280 C   0  0  0  0  0  0  0  0  0  0  0  0
  101.6300   79.9620   87.0440 N   0  0  0  0  0  0  0  0  0  0  0  0
  102.7900   79.9880   86.4330 O   0  0  0  0  0  0  0  0  0  0  0  0
  103.0650   81.1250   85.8410 N   0  0  0  0  0  0  0  0  0  0  0  0
  101.9960   81.8930   86.0900 C   0  0  0  0  0  0  0  0  0  0  0  0
  101.7510   83.2050   85.6970 C   0  0  0  0  0  3  0  0  0  0  0  0
  1 19  1  0
  1  2  2  0
  3  2  1  0
  4  3  2  0
  5  4  1  0
  6  5  2  0
  7  8  2  0
  7  6  1  0
  8  9  1  0
  9 10  2  0
  9  4  1  0
 10  1  1  0
 11  7  1  0
 12 11  1  0
 13 12  1  0
 13 14  1  0
 14 15  1  0
 16 15  1  0
 16  6  1  0
 17 18  2  0
 18 20  1  0
 18 19  1  0
 20 21  1  0
 21 22  2  0
 23 24  2  0
 23 22  1  0
 25 24  1  0
 26 27  2  0
 26 25  1  0
 27 23  1  0
 28 27  1  0
 28 20  2  0
M  RAD  8   2   2   3   2   5   2   8   2  10   2  12   3  13   3  14   3
M  RAD  5  15   3  19   2  21   2  22   2  28   2
M  END
>  <MODEL>  (50) 
1

>  <TORSDO>  (50) 
F 2

>  <SCORE>  (50) 
-12.036

>  <ligand_id>  (50) 
22

>  <original_smiles>  (50) 
O=C(Nc1ccc2cc3c(cc2c1)OCCCCO3)c1ccc2nonc2c1

>  <smiles>  (50) 
O=C(Nc1ccc2cc3c(cc2c1)OCCCCO3)c1ccc2nonc2c1

$$$$
22:0
     RDKit          3D

 28 32  0  0  0  0  0  0  0  0999 V2000
   98.5030   87.0870   85.8840 C   0  0  0  0  0  0  0  0  0  0  0  0
   98.8220   88.1140   86.7790 C   0  0  0  0  0  3  0  0  0  0  0  0
   98.3870   89.4230   86.5460 C   0  0  0  0  0  3  0  0  0  0  0  0
   97.6250   89.7120   85.4130 C   0  0  0  0  0  0  0  0  0  0  0  0
   97.1940   91.0160   85.1670 C   0  0  0  0  0  3  0  0  0  0  0  0
   96.4230   91.3140   84.0370 C   0  0  0  0  0  0  0  0  0  0  0  0
   96.0830   90.2760   83.1240 C   0  0  0  0  0  0  0  0  0  0  0  0
   96.5400   88.9760   83.3710 C   0  0  0  0  0  3  0  0  0  0  0  0
   97.2990   88.6850   84.5040 C   0  0  0  0  0  0  0  0  0  0  0  0
   97.7380   87.3800   84.7430 C   0  0  0  0  0  3  0  0  0  0  0  0
   95.3520   90.4720   81.9430 O   0  0  0  0  0  0  0  0  0  0  0  0
   94.1880   91.2820   81.8270 C   0  0  0  0  0  2  0  0  0  0  0  0
   94.5680   92.7120   81.4940 C   0  0  0  0  0  2  0  0  0  0  0  0
   94.2280   93.6410   82.6530 C   0  0  0  0  0  2  0  0  0  0  0  0
   94.7460   93.1030   83.9780 C   0  0  0  0  0  2  0  0  0  0  0  0
   96.0820   92.6490   83.8280 O   0  0  0  0  0  0  0  0  0  0  0  0
  101.0110   85.8290   85.0090 O   0  0  0  0  0  0  0  0  0  0  0  0
  100.2030   85.1710   85.7200 C   0  0  0  0  0  0  0  0  0  0  0  0
   98.9710   85.7610   86.1620 N   0  0  0  0  0  2  0  0  0  0  0  0
  100.5270   83.7850   86.1000 C   0  0  0  0  0  0  0  0  0  0  0  0
   99.6100   83.0270   86.8760 C   0  0  0  0  0  3  0  0  0  0  0  0
   99.8980   81.7010   87.2510 C   0  0  0  0  0  3  0  0  0  0  0  0
  101.1150   81.1790   86.8280 C   0  0  0  0  0  0  0  0  0  0  0  0
  101.6300   79.9620   87.0440 N   0  0  0  0  0  0  0  0  0  0  0  0
  102.7900   79.9880   86.4330 O   0  0  0  0  0  0  0  0  0  0  0  0
  103.0650   81.1250   85.8410 N   0  0  0  0  0  0  0  0  0  0  0  0
  101.9960   81.8930   86.0900 C   0  0  0  0  0  0  0  0  0  0  0  0
  101.7510   83.2050   85.6970 C   0  0  0  0  0  3  0  0  0  0  0  0
  1 19  1  0
  1  2  2  0
  3  2  1  0
  4  3  2  0
  5  4  1  0
  6  5  2  0
  7  8  2  0
  7  6  1  0
  8  9  1  0
  9 10  2  0
  9  4  1  0
 10  1  1  0
 11  7  1  0
 12 11  1  0
 13 12  1  0
 13 14  1  0
 14 15  1  0
 16 15  1  0
 16  6  1  0
 17 18  2  0
 18 20  1  0
 18 19  1  0
 20 21  1  0
 21 22  2  0
 23 24  2  0
 23 22  1  0
 25 24  1  0
 26 27  2  0
 26 25  1  0
 27 23  1  0
 28 27  1  0
 28 20  2  0
M  RAD  8   2   2   3   2   5   2   8   2  10   2  12   3  13   3  14   3
M  RAD  5  15   3  19   2  21   2  22   2  28   2
M  END
>  <MODEL>  (51) 
1

>  <TORSDO>  (51) 
F 2

>  <SCORE>  (51) 
-12.036

>  <ligand_id>  (51) 
22

>  <original_smiles>  (51) 
O=C(Nc1ccc2cc3c(cc2c1)OCCCCO3)c1ccc2nonc2c1

>  <smiles>  (51) 
O=C(Nc1ccc2cc3c(cc2c1)OCCCCO3)c1ccc2nonc2c1

$$$$
22:0
     RDKit          3D

 28 32  0  0  0  0  0  0  0  0999 V2000
   98.5030   87.0870   85.8840 C   0  0  0  0  0  0  0  0  0  0  0  0
   98.8220   88.1140   86.7790 C   0  0  0  0  0  3  0  0  0  0  0  0
   98.3870   89.4230   86.5460 C   0  0  0  0  0  3  0  0  0  0  0  0
   97.6250   89.7120   85.4130 C   0  0  0  0  0  0  0  0  0  0  0  0
   97.1940   91.0160   85.1670 C   0  0  0  0  0  3  0  0  0  0  0  0
   96.4230   91.3140   84.0370 C   0  0  0  0  0  0  0  0  0  0  0  0
   96.0830   90.2760   83.1240 C   0  0  0  0  0  0  0  0  0  0  0  0
   96.5400   88.9760   83.3710 C   0  0  0  0  0  3  0  0  0  0  0  0
   97.2990   88.6850   84.5040 C   0  0  0  0  0  0  0  0  0  0  0  0
   97.7380   87.3800   84.7430 C   0  0  0  0  0  3  0  0  0  0  0  0
   95.3520   90.4720   81.9430 O   0  0  0  0  0  0  0  0  0  0  0  0
   94.1880   91.2820   81.8270 C   0  0  0  0  0  2  0  0  0  0  0  0
   94.5680   92.7120   81.4940 C   0  0  0  0  0  2  0  0  0  0  0  0
   94.2280   93.6410   82.6530 C   0  0  0  0  0  2  0  0  0  0  0  0
   94.7460   93.1030   83.9780 C   0  0  0  0  0  2  0  0  0  0  0  0
   96.0820   92.6490   83.8280 O   0  0  0  0  0  0  0  0  0  0  0  0
  101.0110   85.8290   85.0090 O   0  0  0  0  0  0  0  0  0  0  0  0
  100.2030   85.1710   85.7200 C   0  0  0  0  0  0  0  0  0  0  0  0
   98.9710   85.7610   86.1620 N   0  0  0  0  0  2  0  0  0  0  0  0
  100.5270   83.7850   86.1000 C   0  0  0  0  0  0  0  0  0  0  0  0
   99.6100   83.0270   86.8760 C   0  0  0  0  0  3  0  0  0  0  0  0
   99.8980   81.7010   87.2510 C   0  0  0  0  0  3  0  0  0  0  0  0
  101.1150   81.1790   86.8280 C   0  0  0  0  0  0  0  0  0  0  0  0
  101.6300   79.9620   87.0440 N   0  0  0  0  0  0  0  0  0  0  0  0
  102.7900   79.9880   86.4330 O   0  0  0  0  0  0  0  0  0  0  0  0
  103.0650   81.1250   85.8410 N   0  0  0  0  0  0  0  0  0  0  0  0
  101.9960   81.8930   86.0900 C   0  0  0  0  0  0  0  0  0  0  0  0
  101.7510   83.2050   85.6970 C   0  0  0  0  0  3  0  0  0  0  0  0
  1 19  1  0
  1  2  2  0
  3  2  1  0
  4  3  2  0
  5  4  1  0
  6  5  2  0
  7  8  2  0
  7  6  1  0
  8  9  1  0
  9 10  2  0
  9  4  1  0
 10  1  1  0
 11  7  1  0
 12 11  1  0
 13 12  1  0
 13 14  1  0
 14 15  1  0
 16 15  1  0
 16  6  1  0
 17 18  2  0
 18 20  1  0
 18 19  1  0
 20 21  1  0
 21 22  2  0
 23 24  2  0
 23 22  1  0
 25 24  1  0
 26 27  2  0
 26 25  1  0
 27 23  1  0
 28 27  1  0
 28 20  2  0
M  RAD  8   2   2   3   2   5   2   8   2  10   2  12   3  13   3  14   3
M  RAD  5  15   3  19   2  21   2  22   2  28   2
M  END
>  <MODEL>  (52) 
1

>  <TORSDO>  (52) 
F 2

>  <SCORE>  (52) 
-12.036

>  <ligand_id>  (52) 
22

>  <original_smiles>  (52) 
O=C(Nc1ccc2cc3c(cc2c1)OCCCCO3)c1ccc2nonc2c1

>  <smiles>  (52) 
O=C(Nc1ccc2cc3c(cc2c1)OCCCCO3)c1ccc2nonc2c1

$$$$
22:0
     RDKit          3D

 28 32  0  0  0  0  0  0  0  0999 V2000
   98.5030   87.0870   85.8840 C   0  0  0  0  0  0  0  0  0  0  0  0
   98.8220   88.1140   86.7790 C   0  0  0  0  0  3  0  0  0  0  0  0
   98.3870   89.4230   86.5460 C   0  0  0  0  0  3  0  0  0  0  0  0
   97.6250   89.7120   85.4130 C   0  0  0  0  0  0  0  0  0  0  0  0
   97.1940   91.0160   85.1670 C   0  0  0  0  0  3  0  0  0  0  0  0
   96.4230   91.3140   84.0370 C   0  0  0  0  0  0  0  0  0  0  0  0
   96.0830   90.2760   83.1240 C   0  0  0  0  0  0  0  0  0  0  0  0
   96.5400   88.9760   83.3710 C   0  0  0  0  0  3  0  0  0  0  0  0
   97.2990   88.6850   84.5040 C   0  0  0  0  0  0  0  0  0  0  0  0
   97.7380   87.3800   84.7430 C   0  0  0  0  0  3  0  0  0  0  0  0
   95.3520   90.4720   81.9430 O   0  0  0  0  0  0  0  0  0  0  0  0
   94.1880   91.2820   81.8270 C   0  0  0  0  0  2  0  0  0  0  0  0
   94.5680   92.7120   81.4940 C   0  0  0  0  0  2  0  0  0  0  0  0
   94.2280   93.6410   82.6530 C   0  0  0  0  0  2  0  0  0  0  0  0
   94.7460   93.1030   83.9780 C   0  0  0  0  0  2  0  0  0  0  0  0
   96.0820   92.6490   83.8280 O   0  0  0  0  0  0  0  0  0  0  0  0
  101.0110   85.8290   85.0090 O   0  0  0  0  0  0  0  0  0  0  0  0
  100.2030   85.1710   85.7200 C   0  0  0  0  0  0  0  0  0  0  0  0
   98.9710   85.7610   86.1620 N   0  0  0  0  0  2  0  0  0  0  0  0
  100.5270   83.7850   86.1000 C   0  0  0  0  0  0  0  0  0  0  0  0
   99.6100   83.0270   86.8760 C   0  0  0  0  0  3  0  0  0  0  0  0
   99.8980   81.7010   87.2510 C   0  0  0  0  0  3  0  0  0  0  0  0
  101.1150   81.1790   86.8280 C   0  0  0  0  0  0  0  0  0  0  0  0
  101.6300   79.9620   87.0440 N   0  0  0  0  0  0  0  0  0  0  0  0
  102.7900   79.9880   86.4330 O   0  0  0  0  0  0  0  0  0  0  0  0
  103.0650   81.1250   85.8410 N   0  0  0  0  0  0  0  0  0  0  0  0
  101.9960   81.8930   86.0900 C   0  0  0  0  0  0  0  0  0  0  0  0
  101.7510   83.2050   85.6970 C   0  0  0  0  0  3  0  0  0  0  0  0
  1 19  1  0
  1  2  2  0
  3  2  1  0
  4  3  2  0
  5  4  1  0
  6  5  2  0
  7  8  2  0
  7  6  1  0
  8  9  1  0
  9 10  2  0
  9  4  1  0
 10  1  1  0
 11  7  1  0
 12 11  1  0
 13 12  1  0
 13 14  1  0
 14 15  1  0
 16 15  1  0
 16  6  1  0
 17 18  2  0
 18 20  1  0
 18 19  1  0
 20 21  1  0
 21 22  2  0
 23 24  2  0
 23 22  1  0
 25 24  1  0
 26 27  2  0
 26 25  1  0
 27 23  1  0
 28 27  1  0
 28 20  2  0
M  RAD  8   2   2   3   2   5   2   8   2  10   2  12   3  13   3  14   3
M  RAD  5  15   3  19   2  21   2  22   2  28   2
M  END
>  <MODEL>  (53) 
1

>  <TORSDO>  (53) 
F 2

>  <SCORE>  (53) 
-12.036

>  <ligand_id>  (53) 
22

>  <original_smiles>  (53) 
O=C(Nc1ccc2cc3c(cc2c1)OCCCCO3)c1ccc2nonc2c1

>  <smiles>  (53) 
O=C(Nc1ccc2cc3c(cc2c1)OCCCCO3)c1ccc2nonc2c1

$$$$
22:0
     RDKit          3D

 28 32  0  0  0  0  0  0  0  0999 V2000
   98.5030   87.0870   85.8840 C   0  0  0  0  0  0  0  0  0  0  0  0
   98.8220   88.1140   86.7790 C   0  0  0  0  0  3  0  0  0  0  0  0
   98.3870   89.4230   86.5460 C   0  0  0  0  0  3  0  0  0  0  0  0
   97.6250   89.7120   85.4130 C   0  0  0  0  0  0  0  0  0  0  0  0
   97.1940   91.0160   85.1670 C   0  0  0  0  0  3  0  0  0  0  0  0
   96.4230   91.3140   84.0370 C   0  0  0  0  0  0  0  0  0  0  0  0
   96.0830   90.2760   83.1240 C   0  0  0  0  0  0  0  0  0  0  0  0
   96.5400   88.9760   83.3710 C   0  0  0  0  0  3  0  0  0  0  0  0
   97.2990   88.6850   84.5040 C   0  0  0  0  0  0  0  0  0  0  0  0
   97.7380   87.3800   84.7430 C   0  0  0  0  0  3  0  0  0  0  0  0
   95.3520   90.4720   81.9430 O   0  0  0  0  0  0  0  0  0  0  0  0
   94.1880   91.2820   81.8270 C   0  0  0  0  0  2  0  0  0  0  0  0
   94.5680   92.7120   81.4940 C   0  0  0  0  0  2  0  0  0  0  0  0
   94.2280   93.6410   82.6530 C   0  0  0  0  0  2  0  0  0  0  0  0
   94.7460   93.1030   83.9780 C   0  0  0  0  0  2  0  0  0  0  0  0
   96.0820   92.6490   83.8280 O   0  0  0  0  0  0  0  0  0  0  0  0
  101.0110   85.8290   85.0090 O   0  0  0  0  0  0  0  0  0  0  0  0
  100.2030   85.1710   85.7200 C   0  0  0  0  0  0  0  0  0  0  0  0
   98.9710   85.7610   86.1620 N   0  0  0  0  0  2  0  0  0  0  0  0
  100.5270   83.7850   86.1000 C   0  0  0  0  0  0  0  0  0  0  0  0
   99.6100   83.0270   86.8760 C   0  0  0  0  0  3  0  0  0  0  0  0
   99.8980   81.7010   87.2510 C   0  0  0  0  0  3  0  0  0  0  0  0
  101.1150   81.1790   86.8280 C   0  0  0  0  0  0  0  0  0  0  0  0
  101.6300   79.9620   87.0440 N   0  0  0  0  0  0  0  0  0  0  0  0
  102.7900   79.9880   86.4330 O   0  0  0  0  0  0  0  0  0  0  0  0
  103.0650   81.1250   85.8410 N   0  0  0  0  0  0  0  0  0  0  0  0
  101.9960   81.8930   86.0900 C   0  0  0  0  0  0  0  0  0  0  0  0
  101.7510   83.2050   85.6970 C   0  0  0  0  0  3  0  0  0  0  0  0
  1 19  1  0
  1  2  2  0
  3  2  1  0
  4  3  2  0
  5  4  1  0
  6  5  2  0
  7  8  2  0
  7  6  1  0
  8  9  1  0
  9 10  2  0
  9  4  1  0
 10  1  1  0
 11  7  1  0
 12 11  1  0
 13 12  1  0
 13 14  1  0
 14 15  1  0
 16 15  1  0
 16  6  1  0
 17 18  2  0
 18 20  1  0
 18 19  1  0
 20 21  1  0
 21 22  2  0
 23 24  2  0
 23 22  1  0
 25 24  1  0
 26 27  2  0
 26 25  1  0
 27 23  1  0
 28 27  1  0
 28 20  2  0
M  RAD  8   2   2   3   2   5   2   8   2  10   2  12   3  13   3  14   3
M  RAD  5  15   3  19   2  21   2  22   2  28   2
M  END
>  <MODEL>  (54) 
1

>  <TORSDO>  (54) 
F 2

>  <SCORE>  (54) 
-12.036

>  <ligand_id>  (54) 
22

>  <original_smiles>  (54) 
O=C(Nc1ccc2cc3c(cc2c1)OCCCCO3)c1ccc2nonc2c1

>  <smiles>  (54) 
O=C(Nc1ccc2cc3c(cc2c1)OCCCCO3)c1ccc2nonc2c1

$$$$
22:0
     RDKit          3D

 28 32  0  0  0  0  0  0  0  0999 V2000
   98.5030   87.0870   85.8840 C   0  0  0  0  0  0  0  0  0  0  0  0
   98.8220   88.1140   86.7790 C   0  0  0  0  0  3  0  0  0  0  0  0
   98.3870   89.4230   86.5460 C   0  0  0  0  0  3  0  0  0  0  0  0
   97.6250   89.7120   85.4130 C   0  0  0  0  0  0  0  0  0  0  0  0
   97.1940   91.0160   85.1670 C   0  0  0  0  0  3  0  0  0  0  0  0
   96.4230   91.3140   84.0370 C   0  0  0  0  0  0  0  0  0  0  0  0
   96.0830   90.2760   83.1240 C   0  0  0  0  0  0  0  0  0  0  0  0
   96.5400   88.9760   83.3710 C   0  0  0  0  0  3  0  0  0  0  0  0
   97.2990   88.6850   84.5040 C   0  0  0  0  0  0  0  0  0  0  0  0
   97.7380   87.3800   84.7430 C   0  0  0  0  0  3  0  0  0  0  0  0
   95.3520   90.4720   81.9430 O   0  0  0  0  0  0  0  0  0  0  0  0
   94.1880   91.2820   81.8270 C   0  0  0  0  0  2  0  0  0  0  0  0
   94.5680   92.7120   81.4940 C   0  0  0  0  0  2  0  0  0  0  0  0
   94.2280   93.6410   82.6530 C   0  0  0  0  0  2  0  0  0  0  0  0
   94.7460   93.1030   83.9780 C   0  0  0  0  0  2  0  0  0  0  0  0
   96.0820   92.6490   83.8280 O   0  0  0  0  0  0  0  0  0  0  0  0
  101.0110   85.8290   85.0090 O   0  0  0  0  0  0  0  0  0  0  0  0
  100.2030   85.1710   85.7200 C   0  0  0  0  0  0  0  0  0  0  0  0
   98.9710   85.7610   86.1620 N   0  0  0  0  0  2  0  0  0  0  0  0
  100.5270   83.7850   86.1000 C   0  0  0  0  0  0  0  0  0  0  0  0
   99.6100   83.0270   86.8760 C   0  0  0  0  0  3  0  0  0  0  0  0
   99.8980   81.7010   87.2510 C   0  0  0  0  0  3  0  0  0  0  0  0
  101.1150   81.1790   86.8280 C   0  0  0  0  0  0  0  0  0  0  0  0
  101.6300   79.9620   87.0440 N   0  0  0  0  0  0  0  0  0  0  0  0
  102.7900   79.9880   86.4330 O   0  0  0  0  0  0  0  0  0  0  0  0
  103.0650   81.1250   85.8410 N   0  0  0  0  0  0  0  0  0  0  0  0
  101.9960   81.8930   86.0900 C   0  0  0  0  0  0  0  0  0  0  0  0
  101.7510   83.2050   85.6970 C   0  0  0  0  0  3  0  0  0  0  0  0
  1 19  1  0
  1  2  2  0
  3  2  1  0
  4  3  2  0
  5  4  1  0
  6  5  2  0
  7  8  2  0
  7  6  1  0
  8  9  1  0
  9 10  2  0
  9  4  1  0
 10  1  1  0
 11  7  1  0
 12 11  1  0
 13 12  1  0
 13 14  1  0
 14 15  1  0
 16 15  1  0
 16  6  1  0
 17 18  2  0
 18 20  1  0
 18 19  1  0
 20 21  1  0
 21 22  2  0
 23 24  2  0
 23 22  1  0
 25 24  1  0
 26 27  2  0
 26 25  1  0
 27 23  1  0
 28 27  1  0
 28 20  2  0
M  RAD  8   2   2   3   2   5   2   8   2  10   2  12   3  13   3  14   3
M  RAD  5  15   3  19   2  21   2  22   2  28   2
M  END
>  <MODEL>  (55) 
1

>  <TORSDO>  (55) 
F 2

>  <SCORE>  (55) 
-12.036

>  <ligand_id>  (55) 
22

>  <original_smiles>  (55) 
O=C(Nc1ccc2cc3c(cc2c1)OCCCCO3)c1ccc2nonc2c1

>  <smiles>  (55) 
O=C(Nc1ccc2cc3c(cc2c1)OCCCCO3)c1ccc2nonc2c1

$$$$
22:0
     RDKit          3D

 28 32  0  0  0  0  0  0  0  0999 V2000
   98.5030   87.0870   85.8840 C   0  0  0  0  0  0  0  0  0  0  0  0
   98.8220   88.1140   86.7790 C   0  0  0  0  0  3  0  0  0  0  0  0
   98.3870   89.4230   86.5460 C   0  0  0  0  0  3  0  0  0  0  0  0
   97.6250   89.7120   85.4130 C   0  0  0  0  0  0  0  0  0  0  0  0
   97.1940   91.0160   85.1670 C   0  0  0  0  0  3  0  0  0  0  0  0
   96.4230   91.3140   84.0370 C   0  0  0  0  0  0  0  0  0  0  0  0
   96.0830   90.2760   83.1240 C   0  0  0  0  0  0  0  0  0  0  0  0
   96.5400   88.9760   83.3710 C   0  0  0  0  0  3  0  0  0  0  0  0
   97.2990   88.6850   84.5040 C   0  0  0  0  0  0  0  0  0  0  0  0
   97.7380   87.3800   84.7430 C   0  0  0  0  0  3  0  0  0  0  0  0
   95.3520   90.4720   81.9430 O   0  0  0  0  0  0  0  0  0  0  0  0
   94.1880   91.2820   81.8270 C   0  0  0  0  0  2  0  0  0  0  0  0
   94.5680   92.7120   81.4940 C   0  0  0  0  0  2  0  0  0  0  0  0
   94.2280   93.6410   82.6530 C   0  0  0  0  0  2  0  0  0  0  0  0
   94.7460   93.1030   83.9780 C   0  0  0  0  0  2  0  0  0  0  0  0
   96.0820   92.6490   83.8280 O   0  0  0  0  0  0  0  0  0  0  0  0
  101.0110   85.8290   85.0090 O   0  0  0  0  0  0  0  0  0  0  0  0
  100.2030   85.1710   85.7200 C   0  0  0  0  0  0  0  0  0  0  0  0
   98.9710   85.7610   86.1620 N   0  0  0  0  0  2  0  0  0  0  0  0
  100.5270   83.7850   86.1000 C   0  0  0  0  0  0  0  0  0  0  0  0
   99.6100   83.0270   86.8760 C   0  0  0  0  0  3  0  0  0  0  0  0
   99.8980   81.7010   87.2510 C   0  0  0  0  0  3  0  0  0  0  0  0
  101.1150   81.1790   86.8280 C   0  0  0  0  0  0  0  0  0  0  0  0
  101.6300   79.9620   87.0440 N   0  0  0  0  0  0  0  0  0  0  0  0
  102.7900   79.9880   86.4330 O   0  0  0  0  0  0  0  0  0  0  0  0
  103.0650   81.1250   85.8410 N   0  0  0  0  0  0  0  0  0  0  0  0
  101.9960   81.8930   86.0900 C   0  0  0  0  0  0  0  0  0  0  0  0
  101.7510   83.2050   85.6970 C   0  0  0  0  0  3  0  0  0  0  0  0
  1 19  1  0
  1  2  2  0
  3  2  1  0
  4  3  2  0
  5  4  1  0
  6  5  2  0
  7  8  2  0
  7  6  1  0
  8  9  1  0
  9 10  2  0
  9  4  1  0
 10  1  1  0
 11  7  1  0
 12 11  1  0
 13 12  1  0
 13 14  1  0
 14 15  1  0
 16 15  1  0
 16  6  1  0
 17 18  2  0
 18 20  1  0
 18 19  1  0
 20 21  1  0
 21 22  2  0
 23 24  2  0
 23 22  1  0
 25 24  1  0
 26 27  2  0
 26 25  1  0
 27 23  1  0
 28 27  1  0
 28 20  2  0
M  RAD  8   2   2   3   2   5   2   8   2  10   2  12   3  13   3  14   3
M  RAD  5  15   3  19   2  21   2  22   2  28   2
M  END
>  <MODEL>  (56) 
1

>  <TORSDO>  (56) 
F 2

>  <SCORE>  (56) 
-12.036

>  <ligand_id>  (56) 
22

>  <original_smiles>  (56) 
O=C(Nc1ccc2cc3c(cc2c1)OCCCCO3)c1ccc2nonc2c1

>  <smiles>  (56) 
O=C(Nc1ccc2cc3c(cc2c1)OCCCCO3)c1ccc2nonc2c1

$$$$
22:0
     RDKit          3D

 28 32  0  0  0  0  0  0  0  0999 V2000
   98.5030   87.0870   85.8840 C   0  0  0  0  0  0  0  0  0  0  0  0
   98.8220   88.1140   86.7790 C   0  0  0  0  0  3  0  0  0  0  0  0
   98.3870   89.4230   86.5460 C   0  0  0  0  0  3  0  0  0  0  0  0
   97.6250   89.7120   85.4130 C   0  0  0  0  0  0  0  0  0  0  0  0
   97.1940   91.0160   85.1670 C   0  0  0  0  0  3  0  0  0  0  0  0
   96.4230   91.3140   84.0370 C   0  0  0  0  0  0  0  0  0  0  0  0
   96.0830   90.2760   83.1240 C   0  0  0  0  0  0  0  0  0  0  0  0
   96.5400   88.9760   83.3710 C   0  0  0  0  0  3  0  0  0  0  0  0
   97.2990   88.6850   84.5040 C   0  0  0  0  0  0  0  0  0  0  0  0
   97.7380   87.3800   84.7430 C   0  0  0  0  0  3  0  0  0  0  0  0
   95.3520   90.4720   81.9430 O   0  0  0  0  0  0  0  0  0  0  0  0
   94.1880   91.2820   81.8270 C   0  0  0  0  0  2  0  0  0  0  0  0
   94.5680   92.7120   81.4940 C   0  0  0  0  0  2  0  0  0  0  0  0
   94.2280   93.6410   82.6530 C   0  0  0  0  0  2  0  0  0  0  0  0
   94.7460   93.1030   83.9780 C   0  0  0  0  0  2  0  0  0  0  0  0
   96.0820   92.6490   83.8280 O   0  0  0  0  0  0  0  0  0  0  0  0
  101.0110   85.8290   85.0090 O   0  0  0  0  0  0  0  0  0  0  0  0
  100.2030   85.1710   85.7200 C   0  0  0  0  0  0  0  0  0  0  0  0
   98.9710   85.7610   86.1620 N   0  0  0  0  0  2  0  0  0  0  0  0
  100.5270   83.7850   86.1000 C   0  0  0  0  0  0  0  0  0  0  0  0
   99.6100   83.0270   86.8760 C   0  0  0  0  0  3  0  0  0  0  0  0
   99.8980   81.7010   87.2510 C   0  0  0  0  0  3  0  0  0  0  0  0
  101.1150   81.1790   86.8280 C   0  0  0  0  0  0  0  0  0  0  0  0
  101.6300   79.9620   87.0440 N   0  0  0  0  0  0  0  0  0  0  0  0
  102.7900   79.9880   86.4330 O   0  0  0  0  0  0  0  0  0  0  0  0
  103.0650   81.1250   85.8410 N   0  0  0  0  0  0  0  0  0  0  0  0
  101.9960   81.8930   86.0900 C   0  0  0  0  0  0  0  0  0  0  0  0
  101.7510   83.2050   85.6970 C   0  0  0  0  0  3  0  0  0  0  0  0
  1 19  1  0
  1  2  2  0
  3  2  1  0
  4  3  2  0
  5  4  1  0
  6  5  2  0
  7  8  2  0
  7  6  1  0
  8  9  1  0
  9 10  2  0
  9  4  1  0
 10  1  1  0
 11  7  1  0
 12 11  1  0
 13 12  1  0
 13 14  1  0
 14 15  1  0
 16 15  1  0
 16  6  1  0
 17 18  2  0
 18 20  1  0
 18 19  1  0
 20 21  1  0
 21 22  2  0
 23 24  2  0
 23 22  1  0
 25 24  1  0
 26 27  2  0
 26 25  1  0
 27 23  1  0
 28 27  1  0
 28 20  2  0
M  RAD  8   2   2   3   2   5   2   8   2  10   2  12   3  13   3  14   3
M  RAD  5  15   3  19   2  21   2  22   2  28   2
M  END
>  <MODEL>  (57) 
1

>  <TORSDO>  (57) 
F 2

>  <SCORE>  (57) 
-12.036

>  <ligand_id>  (57) 
22

>  <original_smiles>  (57) 
O=C(Nc1ccc2cc3c(cc2c1)OCCCCO3)c1ccc2nonc2c1

>  <smiles>  (57) 
O=C(Nc1ccc2cc3c(cc2c1)OCCCCO3)c1ccc2nonc2c1

$$$$
22:0
     RDKit          3D

 28 32  0  0  0  0  0  0  0  0999 V2000
   98.5030   87.0870   85.8840 C   0  0  0  0  0  0  0  0  0  0  0  0
   98.8220   88.1140   86.7790 C   0  0  0  0  0  3  0  0  0  0  0  0
   98.3870   89.4230   86.5460 C   0  0  0  0  0  3  0  0  0  0  0  0
   97.6250   89.7120   85.4130 C   0  0  0  0  0  0  0  0  0  0  0  0
   97.1940   91.0160   85.1670 C   0  0  0  0  0  3  0  0  0  0  0  0
   96.4230   91.3140   84.0370 C   0  0  0  0  0  0  0  0  0  0  0  0
   96.0830   90.2760   83.1240 C   0  0  0  0  0  0  0  0  0  0  0  0
   96.5400   88.9760   83.3710 C   0  0  0  0  0  3  0  0  0  0  0  0
   97.2990   88.6850   84.5040 C   0  0  0  0  0  0  0  0  0  0  0  0
   97.7380   87.3800   84.7430 C   0  0  0  0  0  3  0  0  0  0  0  0
   95.3520   90.4720   81.9430 O   0  0  0  0  0  0  0  0  0  0  0  0
   94.1880   91.2820   81.8270 C   0  0  0  0  0  2  0  0  0  0  0  0
   94.5680   92.7120   81.4940 C   0  0  0  0  0  2  0  0  0  0  0  0
   94.2280   93.6410   82.6530 C   0  0  0  0  0  2  0  0  0  0  0  0
   94.7460   93.1030   83.9780 C   0  0  0  0  0  2  0  0  0  0  0  0
   96.0820   92.6490   83.8280 O   0  0  0  0  0  0  0  0  0  0  0  0
  101.0110   85.8290   85.0090 O   0  0  0  0  0  0  0  0  0  0  0  0
  100.2030   85.1710   85.7200 C   0  0  0  0  0  0  0  0  0  0  0  0
   98.9710   85.7610   86.1620 N   0  0  0  0  0  2  0  0  0  0  0  0
  100.5270   83.7850   86.1000 C   0  0  0  0  0  0  0  0  0  0  0  0
   99.6100   83.0270   86.8760 C   0  0  0  0  0  3  0  0  0  0  0  0
   99.8980   81.7010   87.2510 C   0  0  0  0  0  3  0  0  0  0  0  0
  101.1150   81.1790   86.8280 C   0  0  0  0  0  0  0  0  0  0  0  0
  101.6300   79.9620   87.0440 N   0  0  0  0  0  0  0  0  0  0  0  0
  102.7900   79.9880   86.4330 O   0  0  0  0  0  0  0  0  0  0  0  0
  103.0650   81.1250   85.8410 N   0  0  0  0  0  0  0  0  0  0  0  0
  101.9960   81.8930   86.0900 C   0  0  0  0  0  0  0  0  0  0  0  0
  101.7510   83.2050   85.6970 C   0  0  0  0  0  3  0  0  0  0  0  0
  1 19  1  0
  1  2  2  0
  3  2  1  0
  4  3  2  0
  5  4  1  0
  6  5  2  0
  7  8  2  0
  7  6  1  0
  8  9  1  0
  9 10  2  0
  9  4  1  0
 10  1  1  0
 11  7  1  0
 12 11  1  0
 13 12  1  0
 13 14  1  0
 14 15  1  0
 16 15  1  0
 16  6  1  0
 17 18  2  0
 18 20  1  0
 18 19  1  0
 20 21  1  0
 21 22  2  0
 23 24  2  0
 23 22  1  0
 25 24  1  0
 26 27  2  0
 26 25  1  0
 27 23  1  0
 28 27  1  0
 28 20  2  0
M  RAD  8   2   2   3   2   5   2   8   2  10   2  12   3  13   3  14   3
M  RAD  5  15   3  19   2  21   2  22   2  28   2
M  END
>  <MODEL>  (58) 
1

>  <TORSDO>  (58) 
F 2

>  <SCORE>  (58) 
-12.036

>  <ligand_id>  (58) 
22

>  <original_smiles>  (58) 
O=C(Nc1ccc2cc3c(cc2c1)OCCCCO3)c1ccc2nonc2c1

>  <smiles>  (58) 
O=C(Nc1ccc2cc3c(cc2c1)OCCCCO3)c1ccc2nonc2c1

$$$$
22:0
     RDKit          3D

 28 32  0  0  0  0  0  0  0  0999 V2000
   98.5030   87.0870   85.8840 C   0  0  0  0  0  0  0  0  0  0  0  0
   98.8220   88.1140   86.7790 C   0  0  0  0  0  3  0  0  0  0  0  0
   98.3870   89.4230   86.5460 C   0  0  0  0  0  3  0  0  0  0  0  0
   97.6250   89.7120   85.4130 C   0  0  0  0  0  0  0  0  0  0  0  0
   97.1940   91.0160   85.1670 C   0  0  0  0  0  3  0  0  0  0  0  0
   96.4230   91.3140   84.0370 C   0  0  0  0  0  0  0  0  0  0  0  0
   96.0830   90.2760   83.1240 C   0  0  0  0  0  0  0  0  0  0  0  0
   96.5400   88.9760   83.3710 C   0  0  0  0  0  3  0  0  0  0  0  0
   97.2990   88.6850   84.5040 C   0  0  0  0  0  0  0  0  0  0  0  0
   97.7380   87.3800   84.7430 C   0  0  0  0  0  3  0  0  0  0  0  0
   95.3520   90.4720   81.9430 O   0  0  0  0  0  0  0  0  0  0  0  0
   94.1880   91.2820   81.8270 C   0  0  0  0  0  2  0  0  0  0  0  0
   94.5680   92.7120   81.4940 C   0  0  0  0  0  2  0  0  0  0  0  0
   94.2280   93.6410   82.6530 C   0  0  0  0  0  2  0  0  0  0  0  0
   94.7460   93.1030   83.9780 C   0  0  0  0  0  2  0  0  0  0  0  0
   96.0820   92.6490   83.8280 O   0  0  0  0  0  0  0  0  0  0  0  0
  101.0110   85.8290   85.0090 O   0  0  0  0  0  0  0  0  0  0  0  0
  100.2030   85.1710   85.7200 C   0  0  0  0  0  0  0  0  0  0  0  0
   98.9710   85.7610   86.1620 N   0  0  0  0  0  2  0  0  0  0  0  0
  100.5270   83.7850   86.1000 C   0  0  0  0  0  0  0  0  0  0  0  0
   99.6100   83.0270   86.8760 C   0  0  0  0  0  3  0  0  0  0  0  0
   99.8980   81.7010   87.2510 C   0  0  0  0  0  3  0  0  0  0  0  0
  101.1150   81.1790   86.8280 C   0  0  0  0  0  0  0  0  0  0  0  0
  101.6300   79.9620   87.0440 N   0  0  0  0  0  0  0  0  0  0  0  0
  102.7900   79.9880   86.4330 O   0  0  0  0  0  0  0  0  0  0  0  0
  103.0650   81.1250   85.8410 N   0  0  0  0  0  0  0  0  0  0  0  0
  101.9960   81.8930   86.0900 C   0  0  0  0  0  0  0  0  0  0  0  0
  101.7510   83.2050   85.6970 C   0  0  0  0  0  3  0  0  0  0  0  0
  1 19  1  0
  1  2  2  0
  3  2  1  0
  4  3  2  0
  5  4  1  0
  6  5  2  0
  7  8  2  0
  7  6  1  0
  8  9  1  0
  9 10  2  0
  9  4  1  0
 10  1  1  0
 11  7  1  0
 12 11  1  0
 13 12  1  0
 13 14  1  0
 14 15  1  0
 16 15  1  0
 16  6  1  0
 17 18  2  0
 18 20  1  0
 18 19  1  0
 20 21  1  0
 21 22  2  0
 23 24  2  0
 23 22  1  0
 25 24  1  0
 26 27  2  0
 26 25  1  0
 27 23  1  0
 28 27  1  0
 28 20  2  0
M  RAD  8   2   2   3   2   5   2   8   2  10   2  12   3  13   3  14   3
M  RAD  5  15   3  19   2  21   2  22   2  28   2
M  END
>  <MODEL>  (59) 
1

>  <TORSDO>  (59) 
F 2

>  <SCORE>  (59) 
-12.036

>  <ligand_id>  (59) 
22

>  <original_smiles>  (59) 
O=C(Nc1ccc2cc3c(cc2c1)OCCCCO3)c1ccc2nonc2c1

>  <smiles>  (59) 
O=C(Nc1ccc2cc3c(cc2c1)OCCCCO3)c1ccc2nonc2c1

$$$$
22:0
     RDKit          3D

 28 32  0  0  0  0  0  0  0  0999 V2000
   98.5030   87.0870   85.8840 C   0  0  0  0  0  0  0  0  0  0  0  0
   98.8220   88.1140   86.7790 C   0  0  0  0  0  3  0  0  0  0  0  0
   98.3870   89.4230   86.5460 C   0  0  0  0  0  3  0  0  0  0  0  0
   97.6250   89.7120   85.4130 C   0  0  0  0  0  0  0  0  0  0  0  0
   97.1940   91.0160   85.1670 C   0  0  0  0  0  3  0  0  0  0  0  0
   96.4230   91.3140   84.0370 C   0  0  0  0  0  0  0  0  0  0  0  0
   96.0830   90.2760   83.1240 C   0  0  0  0  0  0  0  0  0  0  0  0
   96.5400   88.9760   83.3710 C   0  0  0  0  0  3  0  0  0  0  0  0
   97.2990   88.6850   84.5040 C   0  0  0  0  0  0  0  0  0  0  0  0
   97.7380   87.3800   84.7430 C   0  0  0  0  0  3  0  0  0  0  0  0
   95.3520   90.4720   81.9430 O   0  0  0  0  0  0  0  0  0  0  0  0
   94.1880   91.2820   81.8270 C   0  0  0  0  0  2  0  0  0  0  0  0
   94.5680   92.7120   81.4940 C   0  0  0  0  0  2  0  0  0  0  0  0
   94.2280   93.6410   82.6530 C   0  0  0  0  0  2  0  0  0  0  0  0
   94.7460   93.1030   83.9780 C   0  0  0  0  0  2  0  0  0  0  0  0
   96.0820   92.6490   83.8280 O   0  0  0  0  0  0  0  0  0  0  0  0
  101.0110   85.8290   85.0090 O   0  0  0  0  0  0  0  0  0  0  0  0
  100.2030   85.1710   85.7200 C   0  0  0  0  0  0  0  0  0  0  0  0
   98.9710   85.7610   86.1620 N   0  0  0  0  0  2  0  0  0  0  0  0
  100.5270   83.7850   86.1000 C   0  0  0  0  0  0  0  0  0  0  0  0
   99.6100   83.0270   86.8760 C   0  0  0  0  0  3  0  0  0  0  0  0
   99.8980   81.7010   87.2510 C   0  0  0  0  0  3  0  0  0  0  0  0
  101.1150   81.1790   86.8280 C   0  0  0  0  0  0  0  0  0  0  0  0
  101.6300   79.9620   87.0440 N   0  0  0  0  0  0  0  0  0  0  0  0
  102.7900   79.9880   86.4330 O   0  0  0  0  0  0  0  0  0  0  0  0
  103.0650   81.1250   85.8410 N   0  0  0  0  0  0  0  0  0  0  0  0
  101.9960   81.8930   86.0900 C   0  0  0  0  0  0  0  0  0  0  0  0
  101.7510   83.2050   85.6970 C   0  0  0  0  0  3  0  0  0  0  0  0
  1 19  1  0
  1  2  2  0
  3  2  1  0
  4  3  2  0
  5  4  1  0
  6  5  2  0
  7  8  2  0
  7  6  1  0
  8  9  1  0
  9 10  2  0
  9  4  1  0
 10  1  1  0
 11  7  1  0
 12 11  1  0
 13 12  1  0
 13 14  1  0
 14 15  1  0
 16 15  1  0
 16  6  1  0
 17 18  2  0
 18 20  1  0
 18 19  1  0
 20 21  1  0
 21 22  2  0
 23 24  2  0
 23 22  1  0
 25 24  1  0
 26 27  2  0
 26 25  1  0
 27 23  1  0
 28 27  1  0
 28 20  2  0
M  RAD  8   2   2   3   2   5   2   8   2  10   2  12   3  13   3  14   3
M  RAD  5  15   3  19   2  21   2  22   2  28   2
M  END
>  <MODEL>  (60) 
1

>  <TORSDO>  (60) 
F 2

>  <SCORE>  (60) 
-12.036

>  <ligand_id>  (60) 
22

>  <original_smiles>  (60) 
O=C(Nc1ccc2cc3c(cc2c1)OCCCCO3)c1ccc2nonc2c1

>  <smiles>  (60) 
O=C(Nc1ccc2cc3c(cc2c1)OCCCCO3)c1ccc2nonc2c1

$$$$
22:0
     RDKit          3D

 28 32  0  0  0  0  0  0  0  0999 V2000
   98.5030   87.0870   85.8840 C   0  0  0  0  0  0  0  0  0  0  0  0
   98.8220   88.1140   86.7790 C   0  0  0  0  0  3  0  0  0  0  0  0
   98.3870   89.4230   86.5460 C   0  0  0  0  0  3  0  0  0  0  0  0
   97.6250   89.7120   85.4130 C   0  0  0  0  0  0  0  0  0  0  0  0
   97.1940   91.0160   85.1670 C   0  0  0  0  0  3  0  0  0  0  0  0
   96.4230   91.3140   84.0370 C   0  0  0  0  0  0  0  0  0  0  0  0
   96.0830   90.2760   83.1240 C   0  0  0  0  0  0  0  0  0  0  0  0
   96.5400   88.9760   83.3710 C   0  0  0  0  0  3  0  0  0  0  0  0
   97.2990   88.6850   84.5040 C   0  0  0  0  0  0  0  0  0  0  0  0
   97.7380   87.3800   84.7430 C   0  0  0  0  0  3  0  0  0  0  0  0
   95.3520   90.4720   81.9430 O   0  0  0  0  0  0  0  0  0  0  0  0
   94.1880   91.2820   81.8270 C   0  0  0  0  0  2  0  0  0  0  0  0
   94.5680   92.7120   81.4940 C   0  0  0  0  0  2  0  0  0  0  0  0
   94.2280   93.6410   82.6530 C   0  0  0  0  0  2  0  0  0  0  0  0
   94.7460   93.1030   83.9780 C   0  0  0  0  0  2  0  0  0  0  0  0
   96.0820   92.6490   83.8280 O   0  0  0  0  0  0  0  0  0  0  0  0
  101.0110   85.8290   85.0090 O   0  0  0  0  0  0  0  0  0  0  0  0
  100.2030   85.1710   85.7200 C   0  0  0  0  0  0  0  0  0  0  0  0
   98.9710   85.7610   86.1620 N   0  0  0  0  0  2  0  0  0  0  0  0
  100.5270   83.7850   86.1000 C   0  0  0  0  0  0  0  0  0  0  0  0
   99.6100   83.0270   86.8760 C   0  0  0  0  0  3  0  0  0  0  0  0
   99.8980   81.7010   87.2510 C   0  0  0  0  0  3  0  0  0  0  0  0
  101.1150   81.1790   86.8280 C   0  0  0  0  0  0  0  0  0  0  0  0
  101.6300   79.9620   87.0440 N   0  0  0  0  0  0  0  0  0  0  0  0
  102.7900   79.9880   86.4330 O   0  0  0  0  0  0  0  0  0  0  0  0
  103.0650   81.1250   85.8410 N   0  0  0  0  0  0  0  0  0  0  0  0
  101.9960   81.8930   86.0900 C   0  0  0  0  0  0  0  0  0  0  0  0
  101.7510   83.2050   85.6970 C   0  0  0  0  0  3  0  0  0  0  0  0
  1 19  1  0
  1  2  2  0
  3  2  1  0
  4  3  2  0
  5  4  1  0
  6  5  2  0
  7  8  2  0
  7  6  1  0
  8  9  1  0
  9 10  2  0
  9  4  1  0
 10  1  1  0
 11  7  1  0
 12 11  1  0
 13 12  1  0
 13 14  1  0
 14 15  1  0
 16 15  1  0
 16  6  1  0
 17 18  2  0
 18 20  1  0
 18 19  1  0
 20 21  1  0
 21 22  2  0
 23 24  2  0
 23 22  1  0
 25 24  1  0
 26 27  2  0
 26 25  1  0
 27 23  1  0
 28 27  1  0
 28 20  2  0
M  RAD  8   2   2   3   2   5   2   8   2  10   2  12   3  13   3  14   3
M  RAD  5  15   3  19   2  21   2  22   2  28   2
M  END
>  <MODEL>  (61) 
1

>  <TORSDO>  (61) 
F 2

>  <SCORE>  (61) 
-12.036

>  <ligand_id>  (61) 
22

>  <original_smiles>  (61) 
O=C(Nc1ccc2cc3c(cc2c1)OCCCCO3)c1ccc2nonc2c1

>  <smiles>  (61) 
O=C(Nc1ccc2cc3c(cc2c1)OCCCCO3)c1ccc2nonc2c1

$$$$
22:0
     RDKit          3D

 28 32  0  0  0  0  0  0  0  0999 V2000
   98.5030   87.0870   85.8840 C   0  0  0  0  0  0  0  0  0  0  0  0
   98.8220   88.1140   86.7790 C   0  0  0  0  0  3  0  0  0  0  0  0
   98.3870   89.4230   86.5460 C   0  0  0  0  0  3  0  0  0  0  0  0
   97.6250   89.7120   85.4130 C   0  0  0  0  0  0  0  0  0  0  0  0
   97.1940   91.0160   85.1670 C   0  0  0  0  0  3  0  0  0  0  0  0
   96.4230   91.3140   84.0370 C   0  0  0  0  0  0  0  0  0  0  0  0
   96.0830   90.2760   83.1240 C   0  0  0  0  0  0  0  0  0  0  0  0
   96.5400   88.9760   83.3710 C   0  0  0  0  0  3  0  0  0  0  0  0
   97.2990   88.6850   84.5040 C   0  0  0  0  0  0  0  0  0  0  0  0
   97.7380   87.3800   84.7430 C   0  0  0  0  0  3  0  0  0  0  0  0
   95.3520   90.4720   81.9430 O   0  0  0  0  0  0  0  0  0  0  0  0
   94.1880   91.2820   81.8270 C   0  0  0  0  0  2  0  0  0  0  0  0
   94.5680   92.7120   81.4940 C   0  0  0  0  0  2  0  0  0  0  0  0
   94.2280   93.6410   82.6530 C   0  0  0  0  0  2  0  0  0  0  0  0
   94.7460   93.1030   83.9780 C   0  0  0  0  0  2  0  0  0  0  0  0
   96.0820   92.6490   83.8280 O   0  0  0  0  0  0  0  0  0  0  0  0
  101.0110   85.8290   85.0090 O   0  0  0  0  0  0  0  0  0  0  0  0
  100.2030   85.1710   85.7200 C   0  0  0  0  0  0  0  0  0  0  0  0
   98.9710   85.7610   86.1620 N   0  0  0  0  0  2  0  0  0  0  0  0
  100.5270   83.7850   86.1000 C   0  0  0  0  0  0  0  0  0  0  0  0
   99.6100   83.0270   86.8760 C   0  0  0  0  0  3  0  0  0  0  0  0
   99.8980   81.7010   87.2510 C   0  0  0  0  0  3  0  0  0  0  0  0
  101.1150   81.1790   86.8280 C   0  0  0  0  0  0  0  0  0  0  0  0
  101.6300   79.9620   87.0440 N   0  0  0  0  0  0  0  0  0  0  0  0
  102.7900   79.9880   86.4330 O   0  0  0  0  0  0  0  0  0  0  0  0
  103.0650   81.1250   85.8410 N   0  0  0  0  0  0  0  0  0  0  0  0
  101.9960   81.8930   86.0900 C   0  0  0  0  0  0  0  0  0  0  0  0
  101.7510   83.2050   85.6970 C   0  0  0  0  0  3  0  0  0  0  0  0
  1 19  1  0
  1  2  2  0
  3  2  1  0
  4  3  2  0
  5  4  1  0
  6  5  2  0
  7  8  2  0
  7  6  1  0
  8  9  1  0
  9 10  2  0
  9  4  1  0
 10  1  1  0
 11  7  1  0
 12 11  1  0
 13 12  1  0
 13 14  1  0
 14 15  1  0
 16 15  1  0
 16  6  1  0
 17 18  2  0
 18 20  1  0
 18 19  1  0
 20 21  1  0
 21 22  2  0
 23 24  2  0
 23 22  1  0
 25 24  1  0
 26 27  2  0
 26 25  1  0
 27 23  1  0
 28 27  1  0
 28 20  2  0
M  RAD  8   2   2   3   2   5   2   8   2  10   2  12   3  13   3  14   3
M  RAD  5  15   3  19   2  21   2  22   2  28   2
M  END
>  <MODEL>  (62) 
1

>  <TORSDO>  (62) 
F 2

>  <SCORE>  (62) 
-12.036

>  <ligand_id>  (62) 
22

>  <original_smiles>  (62) 
O=C(Nc1ccc2cc3c(cc2c1)OCCCCO3)c1ccc2nonc2c1

>  <smiles>  (62) 
O=C(Nc1ccc2cc3c(cc2c1)OCCCCO3)c1ccc2nonc2c1

$$$$
22:0
     RDKit          3D

 28 32  0  0  0  0  0  0  0  0999 V2000
   98.5030   87.0870   85.8840 C   0  0  0  0  0  0  0  0  0  0  0  0
   98.8220   88.1140   86.7790 C   0  0  0  0  0  3  0  0  0  0  0  0
   98.3870   89.4230   86.5460 C   0  0  0  0  0  3  0  0  0  0  0  0
   97.6250   89.7120   85.4130 C   0  0  0  0  0  0  0  0  0  0  0  0
   97.1940   91.0160   85.1670 C   0  0  0  0  0  3  0  0  0  0  0  0
   96.4230   91.3140   84.0370 C   0  0  0  0  0  0  0  0  0  0  0  0
   96.0830   90.2760   83.1240 C   0  0  0  0  0  0  0  0  0  0  0  0
   96.5400   88.9760   83.3710 C   0  0  0  0  0  3  0  0  0  0  0  0
   97.2990   88.6850   84.5040 C   0  0  0  0  0  0  0  0  0  0  0  0
   97.7380   87.3800   84.7430 C   0  0  0  0  0  3  0  0  0  0  0  0
   95.3520   90.4720   81.9430 O   0  0  0  0  0  0  0  0  0  0  0  0
   94.1880   91.2820   81.8270 C   0  0  0  0  0  2  0  0  0  0  0  0
   94.5680   92.7120   81.4940 C   0  0  0  0  0  2  0  0  0  0  0  0
   94.2280   93.6410   82.6530 C   0  0  0  0  0  2  0  0  0  0  0  0
   94.7460   93.1030   83.9780 C   0  0  0  0  0  2  0  0  0  0  0  0
   96.0820   92.6490   83.8280 O   0  0  0  0  0  0  0  0  0  0  0  0
  101.0110   85.8290   85.0090 O   0  0  0  0  0  0  0  0  0  0  0  0
  100.2030   85.1710   85.7200 C   0  0  0  0  0  0  0  0  0  0  0  0
   98.9710   85.7610   86.1620 N   0  0  0  0  0  2  0  0  0  0  0  0
  100.5270   83.7850   86.1000 C   0  0  0  0  0  0  0  0  0  0  0  0
   99.6100   83.0270   86.8760 C   0  0  0  0  0  3  0  0  0  0  0  0
   99.8980   81.7010   87.2510 C   0  0  0  0  0  3  0  0  0  0  0  0
  101.1150   81.1790   86.8280 C   0  0  0  0  0  0  0  0  0  0  0  0
  101.6300   79.9620   87.0440 N   0  0  0  0  0  0  0  0  0  0  0  0
  102.7900   79.9880   86.4330 O   0  0  0  0  0  0  0  0  0  0  0  0
  103.0650   81.1250   85.8410 N   0  0  0  0  0  0  0  0  0  0  0  0
  101.9960   81.8930   86.0900 C   0  0  0  0  0  0  0  0  0  0  0  0
  101.7510   83.2050   85.6970 C   0  0  0  0  0  3  0  0  0  0  0  0
  1 19  1  0
  1  2  2  0
  3  2  1  0
  4  3  2  0
  5  4  1  0
  6  5  2  0
  7  8  2  0
  7  6  1  0
  8  9  1  0
  9 10  2  0
  9  4  1  0
 10  1  1  0
 11  7  1  0
 12 11  1  0
 13 12  1  0
 13 14  1  0
 14 15  1  0
 16 15  1  0
 16  6  1  0
 17 18  2  0
 18 20  1  0
 18 19  1  0
 20 21  1  0
 21 22  2  0
 23 24  2  0
 23 22  1  0
 25 24  1  0
 26 27  2  0
 26 25  1  0
 27 23  1  0
 28 27  1  0
 28 20  2  0
M  RAD  8   2   2   3   2   5   2   8   2  10   2  12   3  13   3  14   3
M  RAD  5  15   3  19   2  21   2  22   2  28   2
M  END
>  <MODEL>  (63) 
1

>  <TORSDO>  (63) 
F 2

>  <SCORE>  (63) 
-12.036

>  <ligand_id>  (63) 
22

>  <original_smiles>  (63) 
O=C(Nc1ccc2cc3c(cc2c1)OCCCCO3)c1ccc2nonc2c1

>  <smiles>  (63) 
O=C(Nc1ccc2cc3c(cc2c1)OCCCCO3)c1ccc2nonc2c1

$$$$
