MODEL        1
REMARK  Name = 
REMARK  10 active torsions:
REMARK  status: ('A' for Active; 'I' for Inactive)
REMARK    1  A    between atoms: C_1  and  C_2
REMARK    2  A    between atoms: C_2  and  C_3
REMARK    3  A    between atoms: C_3  and  C_4
REMARK    4  A    between atoms: C_4  and  C_5
REMARK    5  A    between atoms: C_4  and  C_6
REMARK    6  A    between atoms: C_6  and  C_7
REMARK    7  A    between atoms: C_6  and  C_9
REMARK    8  A    between atoms: C_7  and  C_8
REMARK    9  A    between atoms: C_9  and  C_10
REMARK   10  A    between atoms: C_9  and  C_11
REMARK                            x       y       z     vdW  Elec       q    Type
REMARK                         _______ _______ _______ _____ _____    ______ ____
ROOT
ATOM      1  C   UNL     1       5.151   2.305   1.416  0.00  0.00    +0.000 C 
ENDROOT
BRANCH   1   2
ATOM      2  C   UNL     1       6.729   2.460   1.467  0.00  0.00    +0.000 C 
ATOM      3  C   UNL     1       7.430   2.621   0.113  0.00  0.00    +0.000 C 
ATOM      4  C   UNL     1       7.175   3.675   2.306  0.00  0.00    +0.000 C 
ENDBRANCH   1   2
BRANCH   1   5
ATOM      5  C   UNL     1       4.575   1.061   0.592  0.00  0.00    +0.000 C 
ATOM      6  C   UNL     1       5.107   0.976  -0.847  0.00  0.00    +0.000 C 
BRANCH   5   7
ATOM      7  C   UNL     1       3.016   1.056   0.538  0.00  0.00    +0.000 C 
BRANCH   7   9
ATOM      8  C   UNL     1       0.853  -0.078  -0.122  0.00  0.00    +0.000 C 
ATOM      9  C   UNL     1       2.371  -0.184  -0.112  0.00  0.00    +0.000 C 
ENDBRANCH   7   9
ENDBRANCH   5   7
ENDBRANCH   1   5
BRANCH   1  10
ATOM     10  C   UNL     1       4.549   2.367   2.861  0.00  0.00    +0.000 C 
ATOM     11  C   UNL     1       4.923   1.229   3.809  0.00  0.00    +0.000 C 
ENDBRANCH   1  10
TORSDOF 5
ENDMDL
MODEL        2
REMARK  Name = 
REMARK  6 active torsions:
REMARK  status: ('A' for Active; 'I' for Inactive)
REMARK    1  A    between atoms: C_1  and  C_2
REMARK    2  A    between atoms: C_2  and  C_3
REMARK    3  A    between atoms: C_3  and  C_4
REMARK    4  A    between atoms: C_4  and  C_5
REMARK    5  A    between atoms: C_4  and  C_6
REMARK    6  A    between atoms: C_7  and  O_8
REMARK                            x       y       z     vdW  Elec       q    Type
REMARK                         _______ _______ _______ _____ _____    ______ ____
ROOT
ATOM      1  C   UNL     1       4.969   2.021  -1.953  0.00  0.00    +0.000 C 
ATOM      2  C   UNL     1       6.510   2.267  -2.120  0.00  0.00    +0.000 C 
ATOM      3  C   UNL     1       6.294   3.779  -2.395  0.00  0.00    +0.000 C 
ATOM      4  S   UNL     1       4.781   3.725  -1.510  0.00  0.00    +0.000 S 
ATOM      5 CL   UNL     1       5.122   4.065   0.459  0.00  0.00    +0.000 Cl
ATOM      6  H   UNL     1       3.764   4.368  -2.111  0.00  0.00    +0.000 HD
ENDROOT
BRANCH   1   7
ATOM      7  C   UNL     1       4.508   0.955  -0.944  0.00  0.00    +0.000 C 
ATOM      8  C   UNL     1       5.113  -0.399  -1.328  0.00  0.00    +0.000 C 
BRANCH   7   9
ATOM      9  C   UNL     1       2.964   0.912  -0.935  0.00  0.00    +0.000 C 
BRANCH   9  11
ATOM     10  C   UNL     1       0.852  -0.088   0.012  0.00  0.00    +0.000 C 
ATOM     11  C   UNL     1       2.373  -0.096   0.053  0.00  0.00    +0.000 C 
ENDBRANCH   9  11
ENDBRANCH   7   9
ENDBRANCH   1   7
BRANCH   2  12
ATOM     12  O   UNL     1       7.153   1.526  -3.180  0.00  0.00    +0.000 OA
ATOM     13  H   UNL     1       6.635   1.707  -3.984  0.00  0.00    +0.000 HD
ENDBRANCH   2  12
TORSDOF 4
ENDMDL
MODEL        3
REMARK  Name = 
REMARK  10 active torsions:
REMARK  status: ('A' for Active; 'I' for Inactive)
REMARK    1  A    between atoms: C_1  and  C_2
REMARK    2  A    between atoms: C_2  and  C_3
REMARK    3  A    between atoms: C_3  and  C_4
REMARK    4  A    between atoms: C_4  and  C_5
REMARK    5  A    between atoms: C_4  and  C_6
REMARK    6  A    between atoms: C_6  and  S_7
REMARK    7  A    between atoms: C_6  and  C_9
REMARK    8  A    between atoms: S_7  and  C_8
REMARK    9  A    between atoms: C_9  and  C_10
REMARK   10  A    between atoms: C_9  and  O_11
REMARK                            x       y       z     vdW  Elec       q    Type
REMARK                         _______ _______ _______ _____ _____    ______ ____
ROOT
ATOM      1  C   UNL     1       5.011  -1.792  -1.859  0.00  0.00    +0.000 C 
ENDROOT
BRANCH   1   2
ATOM      2  C   UNL     1       4.434  -0.851  -0.738  0.00  0.00    +0.000 C 
ATOM      3  C   UNL     1       4.918  -1.240   0.665  0.00  0.00    +0.000 C 
BRANCH   2   4
ATOM      4  C   UNL     1       2.873  -0.839  -0.747  0.00  0.00    +0.000 C 
BRANCH   4   6
ATOM      5  C   UNL     1       0.711   0.173   0.065  0.00  0.00    +0.000 C 
ATOM      6  C   UNL     1       2.228   0.201   0.177  0.00  0.00    +0.000 C 
ENDBRANCH   4   6
ENDBRANCH   2   4
ENDBRANCH   1   2
BRANCH   1   7
ATOM      7  S   UNL     1       4.311  -1.330  -3.542  0.00  0.00    +0.000 S 
ATOM      8  C   UNL     1       5.097   0.281  -3.816  0.00  0.00    +0.000 C 
ENDBRANCH   1   7
BRANCH   1   9
ATOM      9  C   UNL     1       6.559  -1.958  -2.009  0.00  0.00    +0.000 C 
ATOM     10  C   UNL     1       7.325  -2.497  -0.806  0.00  0.00    +0.000 C 
BRANCH   9  11
ATOM     11  O   UNL     1       6.852  -2.890  -3.069  0.00  0.00    +0.000 OA
ATOM     12  H   UNL     1       6.341  -3.699  -2.907  0.00  0.00    +0.000 HD
ENDBRANCH   9  11
ENDBRANCH   1   9
TORSDOF 6
ENDMDL
MODEL        4
REMARK  Name = 
REMARK  6 active torsions:
REMARK  status: ('A' for Active; 'I' for Inactive)
REMARK    1  A    between atoms: C_1  and  C_2
REMARK    2  A    between atoms: C_3  and  C_4
REMARK    3  A    between atoms: C_4  and  C_5
REMARK    4  A    between atoms: C_5  and  O_6
REMARK    5  A    between atoms: C_7  and  C_8
REMARK    6  A    between atoms: C_8  and  C_9
REMARK                            x       y       z     vdW  Elec       q    Type
REMARK                         _______ _______ _______ _____ _____    ______ ____
ROOT
ATOM      1  C   UNL     1       5.226  -0.520  -1.643  0.00  0.00    +0.000 C 
ENDROOT
BRANCH   1   4
ATOM      2  C   UNL     1       1.671  -1.886  -0.760  0.00  0.00    +0.000 C 
ATOM      3  C   UNL     1       3.124  -1.537  -0.688  0.00  0.00    +0.000 C 
ATOM      4  C   UNL     1       3.791  -0.977  -1.705  0.00  0.00    +0.000 C 
ENDBRANCH   1   4
BRANCH   1   5
ATOM      5  C   UNL     1       6.164  -1.383  -2.486  0.00  0.00    +0.000 C 
BRANCH   5   6
ATOM      6  O   UNL     1       5.819  -1.333  -3.866  0.00  0.00    +0.000 OA
ATOM      7  H   UNL     1       4.974  -1.805  -3.961  0.00  0.00    +0.000 HD
ENDBRANCH   5   6
ENDBRANCH   1   5
TORSDOF 3
ENDMDL
MODEL        4
REMARK  Name = 
REMARK  6 active torsions:
REMARK  status: ('A' for Active; 'I' for Inactive)
REMARK    1  A    between atoms: C_1  and  C_2
REMARK    2  A    between atoms: C_3  and  C_4
REMARK    3  A    between atoms: C_4  and  C_5
REMARK    4  A    between atoms: C_5  and  O_6
REMARK    5  A    between atoms: C_7  and  C_8
REMARK    6  A    between atoms: C_8  and  C_9
REMARK                            x       y       z     vdW  Elec       q    Type
REMARK                         _______ _______ _______ _____ _____    ______ ____
ROOT
ATOM      1  C   UNL     1       0.159   1.170   0.605  0.00  0.00    +0.000 C 
ATOM      2  C   UNL     1       1.642   1.414   0.828  0.00  0.00    +0.000 C 
ATOM      3  C   UNL     1       2.304   2.038  -0.391  0.00  0.00    +0.000 C 
ENDROOT
TORSDOF 0
ENDMDL
MODEL        5
REMARK  Name = 
REMARK  8 active torsions:
REMARK  status: ('A' for Active; 'I' for Inactive)
REMARK    1  A    between atoms: C_1  and  C_2
REMARK    2  A    between atoms: C_2  and  C_3
REMARK    3  A    between atoms: C_3  and  C_4
REMARK    4  A    between atoms: C_4  and  C_5
REMARK    5  A    between atoms: C_5  and  C_6
REMARK    6  A    between atoms: C_5  and  C_7
REMARK    7  A    between atoms: C_7  and  C_8
REMARK    8  A    between atoms: C_8  and  C_9
REMARK                            x       y       z     vdW  Elec       q    Type
REMARK                         _______ _______ _______ _____ _____    ______ ____
ROOT
ATOM      1  C   UNL     1       5.074   2.071   1.884  0.00  0.00    +0.000 C 
ATOM      2  C   UNL     1       4.600   1.859   3.328  0.00  0.00    +0.000 C 
ENDROOT
BRANCH   1   3
ATOM      3  C   UNL     1       4.506   0.995   0.936  0.00  0.00    +0.000 C 
BRANCH   3   4
ATOM      4  C   UNL     1       2.976   0.981   0.858  0.00  0.00    +0.000 C 
BRANCH   4   6
ATOM      5  C   UNL     1       0.970  -0.072  -0.242  0.00  0.00    +0.000 C 
ATOM      6  C   UNL     1       2.487  -0.056  -0.155  0.00  0.00    +0.000 C 
ENDBRANCH   4   6
ENDBRANCH   3   4
ENDBRANCH   1   3
BRANCH   1   7
ATOM      7  C   UNL     1       6.620   2.089   1.865  0.00  0.00    +0.000 C 
BRANCH   7   8
ATOM      8  C   UNL     1       7.219   2.467   0.508  0.00  0.00    +0.000 C 
ATOM      9  C   UNL     1       8.739   2.498   0.558  0.00  0.00    +0.000 C 
ENDBRANCH   7   8
ENDBRANCH   1   7
TORSDOF 5
ENDMDL
MODEL        6
REMARK  Name = 
REMARK  10 active torsions:
REMARK  status: ('A' for Active; 'I' for Inactive)
REMARK    1  A    between atoms: C_1  and  C_2
REMARK    2  A    between atoms: C_2  and  C_3
REMARK    3  A    between atoms: C_3  and  C_4
REMARK    4  A    between atoms: C_4  and  C_5
REMARK    5  A    between atoms: C_4  and  C_6
REMARK    6  A    between atoms: C_6  and  C_7
REMARK    7  A    between atoms: C_6  and  C_9
REMARK    8  A    between atoms: C_7  and  C_8
REMARK    9  A    between atoms: C_9  and  C_10
REMARK   10  A    between atoms: C_9  and  O_11
REMARK                            x       y       z     vdW  Elec       q    Type
REMARK                         _______ _______ _______ _____ _____    ______ ____
ROOT
ATOM      1  C   UNL     1       5.045   2.244  -1.537  0.00  0.00    +0.000 C 
ENDROOT
BRANCH   1   2
ATOM      2  C   UNL     1       4.492   1.002  -0.727  0.00  0.00    +0.000 C 
ATOM      3  C   UNL     1       5.024  -0.336  -1.258  0.00  0.00    +0.000 C 
BRANCH   2   4
ATOM      4  C   UNL     1       2.934   0.966  -0.730  0.00  0.00    +0.000 C 
BRANCH   4   6
ATOM      5  C   UNL     1       0.782  -0.083   0.087  0.00  0.00    +0.000 C 
ATOM      6  C   UNL     1       2.302  -0.130   0.142  0.00  0.00    +0.000 C 
ENDBRANCH   4   6
ENDBRANCH   2   4
ENDBRANCH   1   2
BRANCH   1   7
ATOM      7  C   UNL     1       4.449   3.598  -1.030  0.00  0.00    +0.000 C 
ATOM      8  C   UNL     1       4.865   4.003   0.380  0.00  0.00    +0.000 C 
ENDBRANCH   1   7
BRANCH   1   9
ATOM      9  C   UNL     1       6.603   2.388  -1.642  0.00  0.00    +0.000 C 
ATOM     10  C   UNL     1       7.376   1.281  -2.345  0.00  0.00    +0.000 C 
BRANCH   9  11
ATOM     11  O   UNL     1       6.897   3.582  -2.388  0.00  0.00    +0.000 OA
ATOM     12  H   UNL     1       6.564   3.456  -3.290  0.00  0.00    +0.000 HD
ENDBRANCH   9  11
ENDBRANCH   1   9
TORSDOF 6
ENDMDL
MODEL        7
REMARK  Name = 
REMARK  7 active torsions:
REMARK  status: ('A' for Active; 'I' for Inactive)
REMARK    1  A    between atoms: C_1  and  C_2
REMARK    2  A    between atoms: C_2  and  C_3
REMARK    3  A    between atoms: C_3  and  C_4
REMARK    4  A    between atoms: C_4  and  C_5
REMARK    5  A    between atoms: C_4  and  C_6
REMARK    6  A    between atoms: C_6  and  C_7
REMARK    7  A    between atoms: C_7  and  C_8
REMARK                            x       y       z     vdW  Elec       q    Type
REMARK                         _______ _______ _______ _____ _____    ______ ____
ROOT
ATOM      1  C   UNL     1       4.448   1.296   0.526  0.00  0.00    +0.000 C 
ATOM      2  C   UNL     1       5.026   1.120  -0.884  0.00  0.00    +0.000 C 
ENDROOT
BRANCH   1   3
ATOM      3  C   UNL     1       2.904   1.256   0.515  0.00  0.00    +0.000 C 
BRANCH   3   5
ATOM      4  C   UNL     1       0.796  -0.048   0.095  0.00  0.00    +0.000 C 
ATOM      5  C   UNL     1       2.315  -0.061   0.004  0.00  0.00    +0.000 C 
ENDBRANCH   3   5
ENDBRANCH   1   3
BRANCH   1   6
ATOM      6  C   UNL     1       4.974   2.624   1.120  0.00  0.00    +0.000 C 
BRANCH   6   7
ATOM      7  C   UNL     1       4.592   2.841   2.587  0.00  0.00    +0.000 C 
ATOM      8  C   UNL     1       5.158   4.146   3.126  0.00  0.00    +0.000 C 
ENDBRANCH   6   7
ENDBRANCH   1   6
TORSDOF 4
ENDMDL
MODEL        8
REMARK  Name = 
REMARK  4 active torsions:
REMARK  status: ('A' for Active; 'I' for Inactive)
REMARK    1  A    between atoms: C_1  and  C_2
REMARK    2  A    between atoms: C_3  and  C_4
REMARK    3  A    between atoms: C_4  and  C_5
REMARK    4  A    between atoms: O_6  and  C_7
REMARK                            x       y       z     vdW  Elec       q    Type
REMARK                         _______ _______ _______ _____ _____    ______ ____
ROOT
ATOM      1  C   UNL     1       1.053   1.858  -1.031  0.00  0.00    +0.000 C 
ATOM      2  C   UNL     1       2.527   1.701  -0.731  0.00  0.00    +0.000 C 
ENDROOT
TORSDOF 0
ENDMDL
MODEL        8
REMARK  Name = 
REMARK  4 active torsions:
REMARK  status: ('A' for Active; 'I' for Inactive)
REMARK    1  A    between atoms: C_1  and  C_2
REMARK    2  A    between atoms: C_3  and  C_4
REMARK    3  A    between atoms: C_4  and  C_5
REMARK    4  A    between atoms: O_6  and  C_7
REMARK                            x       y       z     vdW  Elec       q    Type
REMARK                         _______ _______ _______ _____ _____    ______ ____
ROOT
ATOM      1  C   UNL     1      -0.370  -0.395   1.595  0.00  0.00    +0.000 C 
ATOM      2  C   UNL     1       1.113  -0.637   1.830  0.00  0.00    +0.000 C 
ATOM      3  C   UNL     1       1.762   0.493   2.612  0.00  0.00    +0.000 C 
ENDROOT
TORSDOF 0
ENDMDL
MODEL        8
REMARK  Name = 
REMARK  4 active torsions:
REMARK  status: ('A' for Active; 'I' for Inactive)
REMARK    1  A    between atoms: C_1  and  C_2
REMARK    2  A    between atoms: C_3  and  C_4
REMARK    3  A    between atoms: C_4  and  C_5
REMARK    4  A    between atoms: O_6  and  C_7
REMARK                            x       y       z     vdW  Elec       q    Type
REMARK                         _______ _______ _______ _____ _____    ______ ____
ROOT
ATOM      1  C   UNL     1       4.000  -1.929  -1.644  0.00  0.00    +0.000 C 
ATOM      2  O   UNL     1       4.539  -2.567  -0.478  0.00  0.00    +0.000 OA
ATOM      3  S   UNL     1       5.221  -1.204   0.037  0.00  0.00    +0.000 S 
ATOM      4 CL   UNL     1       7.225  -1.364  -0.098  0.00  0.00    +0.000 Cl
ATOM      5  O   UNL     1       4.621  -0.669  -1.353  0.00  0.00    +0.000 OA
ATOM      6  H   UNL     1       4.614  -0.683   1.124  0.00  0.00    +0.000 HD
ENDROOT
BRANCH   1   7
ATOM      7  O   UNL     1       2.577  -1.887  -1.623  0.00  0.00    +0.000 OA
ATOM      8  H   UNL     1       2.376  -2.191  -0.725  0.00  0.00    +0.000 HD
ENDBRANCH   1   7
TORSDOF 1
ENDMDL
MODEL        9
REMARK  Name = 
REMARK  5 active torsions:
REMARK  status: ('A' for Active; 'I' for Inactive)
REMARK    1  A    between atoms: C_1  and  C_2
REMARK    2  A    between atoms: C_2  and  C_3
REMARK    3  A    between atoms: C_3  and  C_4
REMARK    4  A    between atoms: C_4  and  C_5
REMARK    5  A    between atoms: C_4  and  C_6
REMARK                            x       y       z     vdW  Elec       q    Type
REMARK                         _______ _______ _______ _____ _____    ______ ____
ROOT
ATOM      1  C   UNL     1       4.653  -1.163   0.611  0.00  0.00    +0.000 C 
ATOM      2  C   UNL     1       5.179   0.011   1.447  0.00  0.00    +0.000 C 
ENDROOT
BRANCH   1   3
ATOM      3  C   UNL     1       5.177  -2.472   1.222  0.00  0.00    +0.000 C 
ATOM      4  C   UNL     1       6.731  -2.628   1.302  0.00  0.00    +0.000 C 
ATOM      5  C   UNL     1       6.682  -4.142   1.010  0.00  0.00    +0.000 C 
ATOM      6  S   UNL     1       5.150  -3.899   0.058  0.00  0.00    +0.000 S 
ENDBRANCH   1   3
BRANCH   1   7
ATOM      7  C   UNL     1       3.106  -1.170   0.569  0.00  0.00    +0.000 C 
BRANCH   7   9
ATOM      8  C   UNL     1       0.990   0.033  -0.133  0.00  0.00    +0.000 C 
ATOM      9  C   UNL     1       2.509   0.083  -0.084  0.00  0.00    +0.000 C 
ENDBRANCH   7   9
ENDBRANCH   1   7
TORSDOF 3
ENDMDL
MODEL       10
REMARK  Name = 
REMARK  9 active torsions:
REMARK  status: ('A' for Active; 'I' for Inactive)
REMARK    1  A    between atoms: C_1  and  C_2
REMARK    2  A    between atoms: C_2  and  C_3
REMARK    3  A    between atoms: C_3  and  C_4
REMARK    4  A    between atoms: C_4  and  C_5
REMARK    5  A    between atoms: C_4  and  C_6
REMARK    6  A    between atoms: C_6  and  C_7
REMARK    7  A    between atoms: C_6  and  C_9
REMARK    8  A    between atoms: C_7  and  C_8
REMARK    9  A    between atoms: C_9  and  C_10
REMARK                            x       y       z     vdW  Elec       q    Type
REMARK                         _______ _______ _______ _____ _____    ______ ____
ROOT
ATOM      1  C   UNL     1       4.412  -0.285   1.429  0.00  0.00    +0.000 C 
ATOM      2  C   UNL     1       5.093   1.056   1.115  0.00  0.00    +0.000 C 
ENDROOT
BRANCH   1   3
ATOM      3  C   UNL     1       2.875  -0.182   1.310  0.00  0.00    +0.000 C 
BRANCH   3   5
ATOM      4  C   UNL     1       0.841   0.193  -0.113  0.00  0.00    +0.000 C 
ATOM      5  C   UNL     1       2.365   0.176  -0.088  0.00  0.00    +0.000 C 
ENDBRANCH   3   5
ENDBRANCH   1   3
BRANCH   1   6
ATOM      6  C   UNL     1       4.870  -0.850   2.825  0.00  0.00    +0.000 C 
BRANCH   6   7
ATOM      7  C   UNL     1       4.375   0.049   3.995  0.00  0.00    +0.000 C 
ATOM      8  C   UNL     1       4.943  -0.293   5.368  0.00  0.00    +0.000 C 
ENDBRANCH   6   7
BRANCH   6   9
ATOM      9  C   UNL     1       4.420  -2.316   3.049  0.00  0.00    +0.000 C 
ATOM     10  C   UNL     1       4.920  -3.310   2.010  0.00  0.00    +0.000 C 
ENDBRANCH   6   9
ENDBRANCH   1   6
TORSDOF 5
ENDMDL
MODEL       11
REMARK  Name = 
REMARK  6 active torsions:
REMARK  status: ('A' for Active; 'I' for Inactive)
REMARK    1  A    between atoms: C_1  and  C_2
REMARK    2  A    between atoms: C_2  and  C_3
REMARK    3  A    between atoms: C_3  and  C_4
REMARK    4  A    between atoms: C_4  and  C_5
REMARK    5  A    between atoms: C_4  and  C_6
REMARK    6  A    between atoms: C_9  and  O_10
REMARK                            x       y       z     vdW  Elec       q    Type
REMARK                         _______ _______ _______ _____ _____    ______ ____
ROOT
ATOM      1  C   UNL     1       4.957  -2.051   1.844  0.00  0.00    +0.000 C 
ATOM      2  S   UNL     1       6.782  -2.343   1.944  0.00  0.00    +0.000 S 
ATOM      3  C   UNL     1       6.033  -3.978   2.263  0.00  0.00    +0.000 C 
ATOM      4  C   UNL     1       4.813  -3.554   1.382  0.00  0.00    +0.000 C 
ENDROOT
BRANCH   1   5
ATOM      5  C   UNL     1       4.543  -0.920   0.884  0.00  0.00    +0.000 C 
ATOM      6  C   UNL     1       5.075   0.422   1.408  0.00  0.00    +0.000 C 
BRANCH   5   7
ATOM      7  C   UNL     1       2.999  -0.903   0.784  0.00  0.00    +0.000 C 
BRANCH   7   9
ATOM      8  C   UNL     1       0.921   0.159  -0.196  0.00  0.00    +0.000 C 
ATOM      9  C   UNL     1       2.442   0.184  -0.143  0.00  0.00    +0.000 C 
ENDBRANCH   7   9
ENDBRANCH   5   7
ENDBRANCH   1   5
BRANCH   4  10
ATOM     10  O   UNL     1       4.947  -3.825  -0.038  0.00  0.00    +0.000 OA
ATOM     11  H   UNL     1       5.821  -3.457  -0.269  0.00  0.00    +0.000 HD
ENDBRANCH   4  10
TORSDOF 4
ENDMDL
MODEL       12
REMARK  Name = 
REMARK  8 active torsions:
REMARK  status: ('A' for Active; 'I' for Inactive)
REMARK    1  A    between atoms: C_1  and  C_2
REMARK    2  A    between atoms: C_2  and  C_3
REMARK    3  A    between atoms: C_3  and  C_4
REMARK    4  A    between atoms: C_4  and  C_5
REMARK    5  A    between atoms: C_4  and  C_6
REMARK    6  A    between atoms: C_6  and  C_7
REMARK    7  A    between atoms: C_6  and  C_8
REMARK    8  A    between atoms: C_8  and  C_9
REMARK                            x       y       z     vdW  Elec       q    Type
REMARK                         _______ _______ _______ _____ _____    ______ ____
ROOT
ATOM      1  C   UNL     1       4.554   0.960   1.127  0.00  0.00    +0.000 C 
ATOM      2  C   UNL     1       5.157   1.519  -0.171  0.00  0.00    +0.000 C 
ENDROOT
BRANCH   1   3
ATOM      3  C   UNL     1       5.091   1.746   2.369  0.00  0.00    +0.000 C 
ATOM      4  C   UNL     1       4.650   3.219   2.380  0.00  0.00    +0.000 C 
BRANCH   3   5
ATOM      5  C   UNL     1       4.713   1.109   3.727  0.00  0.00    +0.000 C 
ATOM      6  C   UNL     1       5.259  -0.296   3.930  0.00  0.00    +0.000 C 
ENDBRANCH   3   5
ENDBRANCH   1   3
BRANCH   1   7
ATOM      7  C   UNL     1       3.013   0.916   1.068  0.00  0.00    +0.000 C 
BRANCH   7   9
ATOM      8  C   UNL     1       0.928   0.001   0.003  0.00  0.00    +0.000 C 
ATOM      9  C   UNL     1       2.450   0.017  -0.036  0.00  0.00    +0.000 C 
ENDBRANCH   7   9
ENDBRANCH   1   7
TORSDOF 4
ENDMDL
MODEL       13
REMARK  Name = 
REMARK  6 active torsions:
REMARK  status: ('A' for Active; 'I' for Inactive)
REMARK    1  A    between atoms: C_2  and  C_3
REMARK    2  A    between atoms: C_4  and  C_5
REMARK    3  A    between atoms: C_5  and  C_6
REMARK    4  A    between atoms: C_6  and  C_7
REMARK    5  A    between atoms: C_7  and  C_8
REMARK    6  A    between atoms: C_7  and  C_9
REMARK                            x       y       z     vdW  Elec       q    Type
REMARK                         _______ _______ _______ _____ _____    ______ ____
ROOT
ATOM      1  C   UNL     1       1.274  -0.270  -1.979  0.00  0.00    +0.000 C 
ATOM      2  C   UNL     1       2.283   0.601  -2.101  0.00  0.00    +0.000 C 
ATOM      3  C   UNL     1       2.608   1.696  -1.138  0.00  0.00    +0.000 C 
ENDROOT
TORSDOF 0
ENDMDL
MODEL       13
REMARK  Name = 
REMARK  6 active torsions:
REMARK  status: ('A' for Active; 'I' for Inactive)
REMARK    1  A    between atoms: C_2  and  C_3
REMARK    2  A    between atoms: C_4  and  C_5
REMARK    3  A    between atoms: C_5  and  C_6
REMARK    4  A    between atoms: C_6  and  C_7
REMARK    5  A    between atoms: C_7  and  C_8
REMARK    6  A    between atoms: C_7  and  C_9
REMARK                            x       y       z     vdW  Elec       q    Type
REMARK                         _______ _______ _______ _____ _____    ______ ____
ROOT
ATOM      1  C   UNL     1       2.894  -1.527   1.322  0.00  0.00    +0.000 C 
ENDROOT
BRANCH   1   2
ATOM      2  C   UNL     1       4.392  -1.880   1.483  0.00  0.00    +0.000 C 
ATOM      3  C   UNL     1       4.787  -2.014   2.954  0.00  0.00    +0.000 C 
ATOM      4  C   UNL     1       4.756  -3.161   0.728  0.00  0.00    +0.000 C 
ENDBRANCH   1   2
BRANCH   1   6
ATOM      5  C   UNL     1       1.094   0.218   1.874  0.00  0.00    +0.000 C 
ATOM      6  C   UNL     1       2.549  -0.196   1.997  0.00  0.00    +0.000 C 
ENDBRANCH   1   6
TORSDOF 2
ENDMDL
MODEL       14
REMARK  Name = 
REMARK  7 active torsions:
REMARK  status: ('A' for Active; 'I' for Inactive)
REMARK    1  A    between atoms: C_1  and  C_2
REMARK    2  A    between atoms: C_2  and  C_3
REMARK    3  A    between atoms: C_3  and  C_4
REMARK    4  A    between atoms: C_4  and  C_5
REMARK    5  A    between atoms: C_4  and  C_6
REMARK    6  A    between atoms: C_7  and  C_8
REMARK    7  A    between atoms: C_10  and  O_11
REMARK                            x       y       z     vdW  Elec       q    Type
REMARK                         _______ _______ _______ _____ _____    ______ ____
ROOT
ATOM      1  C   UNL     1       4.907   2.849  -0.590  0.00  0.00    +0.000 C 
ATOM      2  C   UNL     1       4.437   3.966   0.395  0.00  0.00    +0.000 C 
ATOM      3  C   UNL     1       5.264   4.136   1.653  0.00  0.00    +0.000 C 
ATOM      4  C   UNL     1       4.692   4.980  -0.750  0.00  0.00    +0.000 C 
ATOM      5  C   UNL     1       4.503   3.813  -1.754  0.00  0.00    +0.000 C 
ENDROOT
BRANCH   1   6
ATOM      6  C   UNL     1       4.388   1.409  -0.403  0.00  0.00    +0.000 C 
ATOM      7  C   UNL     1       5.065   0.501  -1.435  0.00  0.00    +0.000 C 
BRANCH   6   8
ATOM      8  C   UNL     1       2.856   1.305  -0.468  0.00  0.00    +0.000 C 
BRANCH   8  10
ATOM      9  C   UNL     1       0.787  -0.081  -0.147  0.00  0.00    +0.000 C 
ATOM     10  C   UNL     1       2.308  -0.077  -0.100  0.00  0.00    +0.000 C 
ENDBRANCH   8  10
ENDBRANCH   6   8
ENDBRANCH   1   6
BRANCH   5  11
ATOM     11  O   UNL     1       3.186   3.700  -2.328  0.00  0.00    +0.000 OA
ATOM     12  H   UNL     1       2.563   3.832  -1.591  0.00  0.00    +0.000 HD
ENDBRANCH   5  11
TORSDOF 4
ENDMDL
MODEL       15
REMARK  Name = 
REMARK  5 active torsions:
REMARK  status: ('A' for Active; 'I' for Inactive)
REMARK    1  A    between atoms: C_1  and  S_2
REMARK    2  A    between atoms: S_2  and  C_3
REMARK    3  A    between atoms: C_5  and  C_6
REMARK    4  A    between atoms: C_9  and  C_10
REMARK    5  A    between atoms: C_11  and  C_12
REMARK                            x       y       z     vdW  Elec       q    Type
REMARK                         _______ _______ _______ _____ _____    ______ ____
ROOT
ATOM      1  C   UNL     1       3.994   4.831  -3.662  0.00  0.00    +0.000 C 
ATOM      2  C   UNL     1       4.545   5.870  -2.579  0.00  0.00    +0.000 C 
ATOM      3  C   UNL     1       3.691   5.575  -1.324  0.00  0.00    +0.000 C 
ATOM      4  C   UNL     1       2.922   6.737  -0.706  0.00  0.00    +0.000 C 
ATOM      5  C   UNL     1       2.810   4.530  -1.979  0.00  0.00    +0.000 C 
ATOM      6  C   UNL     1       3.391   3.300  -1.984  0.00  0.00    +0.000 C 
ATOM      7  C   UNL     1       4.193   3.320  -3.264  0.00  0.00    +0.000 C 
ATOM      8  C   UNL     1       5.639   2.863  -3.085  0.00  0.00    +0.000 C 
ATOM      9  C   UNL     1       2.470   4.954  -3.427  0.00  0.00    +0.000 C 
ATOM     10  C   UNL     1       1.079   5.556  -3.245  0.00  0.00    +0.000 C 
ENDROOT
BRANCH   1  12
ATOM     11  C   UNL     1       4.118   3.882  -6.318  0.00  0.00    +0.000 C 
ATOM     12  S   UNL     1       4.693   5.268  -5.309  0.00  0.00    +0.000 S 
ENDBRANCH   1  12
TORSDOF 1
ENDMDL
MODEL       16
REMARK  Name = 
REMARK  11 active torsions:
REMARK  status: ('A' for Active; 'I' for Inactive)
REMARK    1  A    between atoms: C_1  and  S_2
REMARK    2  A    between atoms: S_2  and  C_3
REMARK    3  A    between atoms: C_3  and  C_4
REMARK    4  A    between atoms: C_3  and  C_7
REMARK    5  A    between atoms: C_4  and  C_5
REMARK    6  A    between atoms: C_4  and  C_6
REMARK    7  A    between atoms: C_7  and  C_8
REMARK    8  A    between atoms: C_7  and  C_9
REMARK    9  A    between atoms: C_9  and  C_10
REMARK   10  A    between atoms: C_10  and  C_11
REMARK   11  A    between atoms: C_10  and  C_12
REMARK                            x       y       z     vdW  Elec       q    Type
REMARK                         _______ _______ _______ _____ _____    ______ ____
ROOT
ATOM      1  C   UNL     1       3.207   0.780   1.643  0.00  0.00    +0.000 C 
ENDROOT
BRANCH   1   2
ATOM      2  C   UNL     1       2.505  -0.157   0.589  0.00  0.00    +0.000 C 
ATOM      3  C   UNL     1       3.139  -1.558   0.540  0.00  0.00    +0.000 C 
ATOM      4  C   UNL     1       0.997  -0.344   0.810  0.00  0.00    +0.000 C 
ENDBRANCH   1   2
BRANCH   1   6
ATOM      5  C   UNL     1       0.939   2.381   2.364  0.00  0.00    +0.000 C 
ATOM      6  S   UNL     1       2.561   2.526   1.575  0.00  0.00    +0.000 S 
ENDBRANCH   1   6
BRANCH   1   7
ATOM      7  C   UNL     1       4.775   0.815   1.490  0.00  0.00    +0.000 C 
ATOM      8  C   UNL     1       5.224   1.389   0.124  0.00  0.00    +0.000 C 
BRANCH   7   9
ATOM      9  C   UNL     1       5.557   1.591   2.585  0.00  0.00    +0.000 C 
BRANCH   9  10
ATOM     10  C   UNL     1       5.488   1.065   4.032  0.00  0.00    +0.000 C 
ATOM     11  C   UNL     1       6.064  -0.344   4.174  0.00  0.00    +0.000 C 
ATOM     12  C   UNL     1       6.273   2.019   4.943  0.00  0.00    +0.000 C 
ENDBRANCH   9  10
ENDBRANCH   7   9
ENDBRANCH   1   7
TORSDOF 5
ENDMDL
MODEL       17
REMARK  Name = 
REMARK  5 active torsions:
REMARK  status: ('A' for Active; 'I' for Inactive)
REMARK    1  A    between atoms: C_1  and  C_2
REMARK    2  A    between atoms: C_2  and  C_3
REMARK    3  A    between atoms: C_3  and  C_4
REMARK    4  A    between atoms: C_4  and  C_5
REMARK    5  A    between atoms: C_4  and  C_6
REMARK                            x       y       z     vdW  Elec       q    Type
REMARK                         _______ _______ _______ _____ _____    ______ ____
ROOT
ATOM      1  C   UNL     1       4.539  -0.963   0.985  0.00  0.00    +0.000 C 
ATOM      2  C   UNL     1       5.102   0.417   1.338  0.00  0.00    +0.000 C 
ENDROOT
BRANCH   1   3
ATOM      3  C   UNL     1       4.996  -1.968   2.054  0.00  0.00    +0.000 C 
ATOM      4  C   UNL     1       6.531  -2.158   2.218  0.00  0.00    +0.000 C 
ATOM      5  C   UNL     1       6.257  -3.643   2.508  0.00  0.00    +0.000 C 
ATOM      6  C   UNL     1       4.948  -3.486   1.707  0.00  0.00    +0.000 C 
ENDBRANCH   1   3
BRANCH   1   7
ATOM      7  C   UNL     1       2.997  -0.952   0.917  0.00  0.00    +0.000 C 
BRANCH   7   9
ATOM      8  C   UNL     1       0.909  -0.031  -0.170  0.00  0.00    +0.000 C 
ATOM      9  C   UNL     1       2.429   0.006  -0.138  0.00  0.00    +0.000 C 
ENDBRANCH   7   9
ENDBRANCH   1   7
TORSDOF 3
ENDMDL
MODEL       18
REMARK  Name = 
REMARK  8 active torsions:
REMARK  status: ('A' for Active; 'I' for Inactive)
REMARK    1  A    between atoms: C_1  and  C_2
REMARK    2  A    between atoms: C_2  and  C_3
REMARK    3  A    between atoms: C_3  and  C_4
REMARK    4  A    between atoms: C_4  and  C_5
REMARK    5  A    between atoms: C_4  and  C_6
REMARK    6  A    between atoms: C_6  and  C_7
REMARK    7  A    between atoms: C_7  and  C_8
REMARK    8  A    between atoms: C_7  and  C_9
REMARK                            x       y       z     vdW  Elec       q    Type
REMARK                         _______ _______ _______ _____ _____    ______ ____
ROOT
ATOM      1  C   UNL     1       4.558   0.745  -1.144  0.00  0.00    +0.000 C 
ATOM      2  C   UNL     1       5.038  -0.715  -1.211  0.00  0.00    +0.000 C 
ENDROOT
BRANCH   1   3
ATOM      3  C   UNL     1       3.016   0.834  -1.144  0.00  0.00    +0.000 C 
BRANCH   3   5
ATOM      4  C   UNL     1       0.838   0.298   0.011  0.00  0.00    +0.000 C 
ATOM      5  C   UNL     1       2.349   0.141   0.051  0.00  0.00    +0.000 C 
ENDBRANCH   3   5
ENDBRANCH   1   3
BRANCH   1   6
ATOM      6  C   UNL     1       5.170   1.521  -2.335  0.00  0.00    +0.000 C 
BRANCH   6   7
ATOM      7  C   UNL     1       4.893   3.042  -2.401  0.00  0.00    +0.000 C 
ATOM      8  C   UNL     1       5.406   3.797  -1.172  0.00  0.00    +0.000 C 
ATOM      9  C   UNL     1       5.532   3.628  -3.665  0.00  0.00    +0.000 C 
ENDBRANCH   6   7
ENDBRANCH   1   6
TORSDOF 4
ENDMDL
MODEL       19
REMARK  Name = 
REMARK  6 active torsions:
REMARK  status: ('A' for Active; 'I' for Inactive)
REMARK    1  A    between atoms: C_1  and  C_2
REMARK    2  A    between atoms: C_3  and  C_4
REMARK    3  A    between atoms: C_4  and  C_5
REMARK    4  A    between atoms: C_5  and  C_6
REMARK    5  A    between atoms: C_6  and  C_7
REMARK    6  A    between atoms: C_6  and  C_8
REMARK                            x       y       z     vdW  Elec       q    Type
REMARK                         _______ _______ _______ _____ _____    ______ ____
ROOT
ATOM      1  C   UNL     1       0.103   0.448  -1.659  0.00  0.00    +0.000 C 
ATOM      2  C   UNL     1       1.569   0.625  -1.983  0.00  0.00    +0.000 C 
ENDROOT
TORSDOF 0
ENDMDL
MODEL       19
REMARK  Name = 
REMARK  6 active torsions:
REMARK  status: ('A' for Active; 'I' for Inactive)
REMARK    1  A    between atoms: C_1  and  C_2
REMARK    2  A    between atoms: C_3  and  C_4
REMARK    3  A    between atoms: C_4  and  C_5
REMARK    4  A    between atoms: C_5  and  C_6
REMARK    5  A    between atoms: C_6  and  C_7
REMARK    6  A    between atoms: C_6  and  C_8
REMARK                            x       y       z     vdW  Elec       q    Type
REMARK                         _______ _______ _______ _____ _____    ______ ____
ROOT
ATOM      1  C   UNL     1       3.428   0.669   1.796  0.00  0.00    +0.000 C 
ENDROOT
BRANCH   1   2
ATOM      2  C   UNL     1       4.960   0.782   1.682  0.00  0.00    +0.000 C 
ATOM      3  C   UNL     1       5.452   0.680   0.238  0.00  0.00    +0.000 C 
ATOM      4  C   UNL     1       5.421   2.112   2.285  0.00  0.00    +0.000 C 
ENDBRANCH   1   2
BRANCH   1   6
ATOM      5  C   UNL     1       1.359  -0.730   1.487  0.00  0.00    +0.000 C 
ATOM      6  C   UNL     1       2.869  -0.669   1.307  0.00  0.00    +0.000 C 
ENDBRANCH   1   6
TORSDOF 2
ENDMDL
MODEL       20
REMARK  Name = 
REMARK  11 active torsions:
REMARK  status: ('A' for Active; 'I' for Inactive)
REMARK    1  A    between atoms: C_1  and  C_2
REMARK    2  A    between atoms: C_2  and  C_3
REMARK    3  A    between atoms: C_3  and  C_4
REMARK    4  A    between atoms: C_3  and  C_7
REMARK    5  A    between atoms: C_4  and  C_5
REMARK    6  A    between atoms: C_4  and  O_6
REMARK    7  A    between atoms: C_7  and  C_8
REMARK    8  A    between atoms: C_7  and  C_9
REMARK    9  A    between atoms: C_9  and  C_10
REMARK   10  A    between atoms: C_10  and  C_11
REMARK   11  A    between atoms: C_10  and  C_12
REMARK                            x       y       z     vdW  Elec       q    Type
REMARK                         _______ _______ _______ _____ _____    ______ ____
ROOT
ATOM      1  C   UNL     1       3.009   0.316   1.499  0.00  0.00    +0.000 C 
ENDROOT
BRANCH   1   3
ATOM      2  C   UNL     1       0.982   1.766   2.279  0.00  0.00    +0.000 C 
ATOM      3  C   UNL     1       2.456   1.714   1.903  0.00  0.00    +0.000 C 
ENDBRANCH   1   3
BRANCH   1   4
ATOM      4  C   UNL     1       2.261  -0.258   0.253  0.00  0.00    +0.000 C 
ATOM      5  C   UNL     1       2.816  -1.572  -0.284  0.00  0.00    +0.000 C 
BRANCH   4   6
ATOM      6  O   UNL     1       0.891  -0.509   0.567  0.00  0.00    +0.000 OA
ATOM      7  H   UNL     1       0.861  -1.158   1.294  0.00  0.00    +0.000 HD
ENDBRANCH   4   6
ENDBRANCH   1   4
BRANCH   1   8
ATOM      8  C   UNL     1       4.568   0.353   1.321  0.00  0.00    +0.000 C 
ATOM      9  C   UNL     1       5.004   1.286   0.176  0.00  0.00    +0.000 C 
BRANCH   8  10
ATOM     10  C   UNL     1       5.367   0.772   2.585  0.00  0.00    +0.000 C 
BRANCH  10  11
ATOM     11  C   UNL     1       5.211  -0.100   3.845  0.00  0.00    +0.000 C 
ATOM     12  C   UNL     1       5.704  -1.531   3.624  0.00  0.00    +0.000 C 
ATOM     13  C   UNL     1       5.998   0.538   4.998  0.00  0.00    +0.000 C 
ENDBRANCH  10  11
ENDBRANCH   8  10
ENDBRANCH   1   8
TORSDOF 6
ENDMDL
MODEL       21
REMARK  Name = 
REMARK  7 active torsions:
REMARK  status: ('A' for Active; 'I' for Inactive)
REMARK    1  A    between atoms: C_1  and  C_2
REMARK    2  A    between atoms: C_2  and  C_3
REMARK    3  A    between atoms: C_3  and  C_4
REMARK    4  A    between atoms: C_4  and  C_5
REMARK    5  A    between atoms: C_4  and  C_6
REMARK    6  A    between atoms: C_8  and  C_9
REMARK    7  A    between atoms: C_11  and  C_12
REMARK                            x       y       z     vdW  Elec       q    Type
REMARK                         _______ _______ _______ _____ _____    ______ ____
ROOT
ATOM      1  C   UNL     1       2.935   1.524  -0.191  0.00  0.00    +0.000 C 
ATOM      2  C   UNL     1       4.153   1.732   0.763  0.00  0.00    +0.000 C 
ATOM      3  C   UNL     1       4.116   3.169   1.292  0.00  0.00    +0.000 C 
ATOM      4  C   UNL     1       5.482   3.842   1.244  0.00  0.00    +0.000 C 
ATOM      5  C   UNL     1       3.060   3.894   0.472  0.00  0.00    +0.000 C 
ATOM      6  C   UNL     1       2.057   2.803   0.063  0.00  0.00    +0.000 C 
ATOM      7  C   UNL     1       0.978   2.665   1.145  0.00  0.00    +0.000 C 
ENDROOT
BRANCH   1   8
ATOM      8  C   UNL     1       3.412   1.419  -1.703  0.00  0.00    +0.000 C 
ATOM      9  C   UNL     1       2.273   1.078  -2.681  0.00  0.00    +0.000 C 
ATOM     10  C   UNL     1       4.152   2.639  -2.262  0.00  0.00    +0.000 C 
ENDBRANCH   1   8
BRANCH   1  12
ATOM     11  C   UNL     1       3.056  -1.073   0.063  0.00  0.00    +0.000 C 
ATOM     12  C   UNL     1       2.216   0.195   0.224  0.00  0.00    +0.000 C 
ENDBRANCH   1  12
TORSDOF 2
ENDMDL
MODEL       22
REMARK  Name = 
REMARK  7 active torsions:
REMARK  status: ('A' for Active; 'I' for Inactive)
REMARK    1  A    between atoms: C_1  and  C_2
REMARK    2  A    between atoms: C_2  and  C_3
REMARK    3  A    between atoms: C_3  and  C_4
REMARK    4  A    between atoms: C_4  and  C_5
REMARK    5  A    between atoms: C_4  and  C_6
REMARK    6  A    between atoms: C_7  and  O_8
REMARK    7  A    between atoms: S_10  and  C_11
REMARK                            x       y       z     vdW  Elec       q    Type
REMARK                         _______ _______ _______ _____ _____    ______ ____
ROOT
ATOM      1  C   UNL     1       5.083  -2.718   0.746  0.00  0.00    +0.000 C 
ATOM      2  C   UNL     1       6.618  -3.027   0.897  0.00  0.00    +0.000 C 
ATOM      3  C   UNL     1       6.389  -4.531   0.575  0.00  0.00    +0.000 C 
ATOM      4  S   UNL     1       4.926  -4.119  -0.309  0.00  0.00    +0.000 S 
ATOM      5  C   UNL     1       5.419  -3.896  -1.968  0.00  0.00    +0.000 C 
ATOM      6  H   UNL     1       3.900  -4.949  -0.038  0.00  0.00    +0.000 HD
ENDROOT
BRANCH   1   7
ATOM      7  C   UNL     1       4.631  -1.316   0.297  0.00  0.00    +0.000 C 
ATOM      8  C   UNL     1       5.166  -0.294   1.315  0.00  0.00    +0.000 C 
BRANCH   7   9
ATOM      9  C   UNL     1       3.089  -1.253   0.230  0.00  0.00    +0.000 C 
BRANCH   9  11
ATOM     10  C   UNL     1       0.974   0.003  -0.283  0.00  0.00    +0.000 C 
ATOM     11  C   UNL     1       2.496   0.090  -0.229  0.00  0.00    +0.000 C 
ENDBRANCH   9  11
ENDBRANCH   7   9
ENDBRANCH   1   7
BRANCH   2  12
ATOM     12  O   UNL     1       7.187  -2.758   2.199  0.00  0.00    +0.000 OA
ATOM     13  H   UNL     1       6.613  -3.217   2.833  0.00  0.00    +0.000 HD
ENDBRANCH   2  12
TORSDOF 4
ENDMDL
MODEL       23
REMARK  Name = 
REMARK  6 active torsions:
REMARK  status: ('A' for Active; 'I' for Inactive)
REMARK    1  A    between atoms: C_1  and  C_2
REMARK    2  A    between atoms: C_2  and  C_3
REMARK    3  A    between atoms: C_3  and  C_4
REMARK    4  A    between atoms: C_4  and  C_5
REMARK    5  A    between atoms: C_4  and  C_6
REMARK    6  A    between atoms: C_7  and  O_8
REMARK                            x       y       z     vdW  Elec       q    Type
REMARK                         _______ _______ _______ _____ _____    ______ ____
ROOT
ATOM      1  C   UNL     1       4.853   1.879   2.327  0.00  0.00    +0.000 C 
ATOM      2  C   UNL     1       6.370   2.093   2.623  0.00  0.00    +0.000 C 
ATOM      3  C   UNL     1       5.978   2.345   4.095  0.00  0.00    +0.000 C 
ATOM      4  C   UNL     1       4.711   1.497   3.841  0.00  0.00    +0.000 C 
ATOM      5 CL   UNL     1       4.782  -0.233   4.352  0.00  0.00    +0.000 Cl
ENDROOT
BRANCH   1   6
ATOM      6  C   UNL     1       4.463   0.873   1.229  0.00  0.00    +0.000 C 
ATOM      7  C   UNL     1       5.085   1.318  -0.098  0.00  0.00    +0.000 C 
BRANCH   6   8
ATOM      8  C   UNL     1       2.923   0.800   1.147  0.00  0.00    +0.000 C 
BRANCH   8  10
ATOM      9  C   UNL     1       0.865  -0.220   0.109  0.00  0.00    +0.000 C 
ATOM     10  C   UNL     1       2.388  -0.197   0.115  0.00  0.00    +0.000 C 
ENDBRANCH   8  10
ENDBRANCH   6   8
ENDBRANCH   1   6
BRANCH   2  11
ATOM     11  O   UNL     1       7.005   3.189   1.938  0.00  0.00    +0.000 OA
ATOM     12  H   UNL     1       6.436   3.964   2.079  0.00  0.00    +0.000 HD
ENDBRANCH   2  11
TORSDOF 4
ENDMDL
