0
     RDKit          3D

 29 33  0  0  0  0  0  0  0  0999 V2000
   -3.0732    3.3668   -0.2984 O   0  0  0  0  0  0  0  0  0  0  0  0
   -2.9701    2.2575    0.2908 C   0  0  0  0  0  0  0  0  0  0  0  0
   -2.7126    2.2473    1.7656 C   0  0  0  0  0  0  0  0  0  0  0  0
   -1.2573    2.0496    2.0302 C   0  0  0  0  0  0  0  0  0  0  0  0
   -0.3691    3.1277    1.9313 C   0  0  0  0  0  0  0  0  0  0  0  0
    1.0028    2.9262    2.1119 C   0  0  0  0  0  0  0  0  0  0  0  0
    1.4910    1.6459    2.3904 C   0  0  0  0  0  0  0  0  0  0  0  0
    0.5995    0.5627    2.4935 C   0  0  0  0  0  0  0  0  0  0  0  0
   -0.7695    0.7684    2.3081 C   0  0  0  0  0  0  0  0  0  0  0  0
    1.1206   -0.8197    2.7530 C   0  0  0  0  0  0  0  0  0  0  0  0
    1.9390   -1.3960    1.5858 C   0  0  0  0  0  0  0  0  0  0  0  0
    2.6124   -0.3570    0.6788 C   0  0  0  0  0  0  0  0  0  0  0  0
    3.5830    0.5817    1.4093 C   0  0  0  0  0  0  0  0  0  0  0  0
    2.9668    1.4214    2.5418 C   0  0  0  0  0  0  0  0  0  0  0  0
   -3.0310    1.0350   -0.4599 N   0  0  0  0  0  0  0  0  0  0  0  0
   -2.8711    1.0732   -1.9174 C   0  0  0  0  0  0  0  0  0  0  0  0
   -2.6644   -0.3289   -2.4914 C   0  0  0  0  0  0  0  0  0  0  0  0
   -1.7465   -1.0861   -1.6359 N   0  0  0  0  0  0  0  0  0  0  0  0
   -0.5843   -1.7255   -2.1898 C   0  0  0  0  0  0  0  0  0  0  0  0
   -0.3220   -1.6643   -3.5852 C   0  0  0  0  0  0  0  0  0  0  0  0
    0.8245   -2.2779   -4.1217 C   0  0  0  0  0  0  0  0  0  0  0  0
    1.6625   -2.9289   -3.2269 C   0  0  0  0  0  0  0  0  0  0  0  0
    2.8418   -3.6166   -3.3914 C   0  0  0  0  0  0  0  0  0  0  0  0
    3.2198   -4.0404   -2.1564 N   0  0  0  0  0  0  0  0  0  0  0  0
    2.3355   -3.6495   -1.2418 N   0  0  0  0  0  0  0  0  0  0  0  0
    1.3873   -2.9722   -1.9000 C   0  0  0  0  0  0  0  0  0  0  0  0
    0.2885   -2.3878   -1.3647 N   0  0  0  0  0  0  0  0  0  0  0  0
   -1.9900   -1.1585   -0.1907 C   0  0  0  0  0  0  0  0  0  0  0  0
   -3.1468   -0.2523    0.2255 C   0  0  0  0  0  0  0  0  0  0  0  0
  1  2  2  0
  2  3  1  0
  3  4  1  0
  4  5  2  0
  5  6  1  0
  6  7  2  0
  7  8  1  0
  8  9  2  0
  8 10  1  0
 10 11  1  0
 11 12  1  0
 12 13  1  0
 13 14  1  0
  2 15  1  0
 15 16  1  0
 16 17  1  0
 17 18  1  0
 18 19  1  0
 19 20  2  0
 20 21  1  0
 21 22  2  0
 22 23  1  0
 23 24  2  0
 24 25  1  0
 25 26  1  0
 26 27  2  0
 18 28  1  0
 28 29  1  0
  9  4  1  0
 29 15  1  0
 14  7  1  0
 27 19  1  0
 26 22  1  0
M  END
$$$$
1
     RDKit          3D

 27 31  0  0  0  0  0  0  0  0999 V2000
    0.4957    1.5962   -2.8040 O   0  0  0  0  0  0  0  0  0  0  0  0
    0.3101    0.9112   -1.7615 C   0  0  0  0  0  0  0  0  0  0  0  0
    1.0086    1.2246   -0.5467 N   0  0  0  0  0  0  0  0  0  0  0  0
    1.9537    2.2841   -0.3452 C   0  0  0  0  0  0  0  0  0  0  0  0
    2.3097    3.1766   -1.3884 C   0  0  0  0  0  0  0  0  0  0  0  0
    3.2390    4.2102   -1.1714 C   0  0  0  0  0  0  0  0  0  0  0  0
    3.7889    4.3172    0.1021 C   0  0  0  0  0  0  0  0  0  0  0  0
    4.6852    5.2164    0.5329 N   0  0  0  0  0  0  0  0  0  0  0  0
    4.8530    4.8491    1.8291 C   0  0  0  0  0  0  0  0  0  0  0  0
    5.6349    5.4572    2.6054 O   0  0  0  0  0  0  0  0  0  0  0  0
    4.1182    3.7799    2.2292 N   0  0  0  0  0  0  0  0  0  0  0  0
    3.4523    3.4643    1.1091 C   0  0  0  0  0  0  0  0  0  0  0  0
    2.5367    2.4313    0.9284 C   0  0  0  0  0  0  0  0  0  0  0  0
   -0.6321   -0.2212   -1.7903 C   0  0  0  0  0  0  0  0  0  0  0  0
   -1.3277   -0.5399   -2.9848 C   0  0  0  0  0  0  0  0  0  0  0  0
   -2.2317   -1.6176   -3.0321 C   0  0  0  0  0  0  0  0  0  0  0  0
   -2.4113   -2.3509   -1.8636 C   0  0  0  0  0  0  0  0  0  0  0  0
   -3.2140   -3.4108   -1.6720 N   0  0  0  0  0  0  0  0  0  0  0  0
   -2.9817   -3.7049   -0.3643 C   0  0  0  0  0  0  0  0  0  0  0  0
   -3.6363   -4.8108    0.3401 C   0  0  0  0  0  0  0  0  0  0  0  0
   -4.5539   -5.6844   -0.2080 C   0  0  0  0  0  0  0  0  0  0  0  0
   -4.8586   -6.5219    0.8521 C   0  0  0  0  0  0  0  0  0  0  0  0
   -4.1619   -6.1363    1.8982 O   0  0  0  0  0  0  0  0  0  0  0  0
   -3.4144   -5.1095    1.6292 N   0  0  0  0  0  0  0  0  0  0  0  0
   -2.1070   -2.8961    0.2121 O   0  0  0  0  0  0  0  0  0  0  0  0
   -1.7471   -2.0504   -0.7142 C   0  0  0  0  0  0  0  0  0  0  0  0
   -0.8463   -0.9938   -0.6280 C   0  0  0  0  0  0  0  0  0  0  0  0
  1  2  2  0
  2  3  1  0
  3  4  1  0
  4  5  2  0
  5  6  1  0
  6  7  2  0
  7  8  1  0
  8  9  1  0
  9 10  2  0
  9 11  1  0
 11 12  1  0
 12 13  2  0
  2 14  1  0
 14 15  2  0
 15 16  1  0
 16 17  2  0
 17 18  1  0
 18 19  2  0
 19 20  1  0
 20 21  1  0
 21 22  2  0
 22 23  1  0
 23 24  1  0
 19 25  1  0
 25 26  1  0
 26 27  2  0
 13  4  1  0
 27 14  1  0
 12  7  1  0
 26 17  1  0
 24 20  2  0
M  END
$$$$
2
     RDKit          3D

 26 30  0  0  0  0  0  0  0  0999 V2000
   -2.5806   -0.1190   -1.9950 O   0  0  0  0  0  0  0  0  0  0  0  0
   -2.1140   -0.7263   -0.9918 C   0  0  0  0  0  0  0  0  0  0  0  0
   -0.7827   -0.3328   -0.4749 C   0  0  0  0  0  0  0  0  0  0  0  0
   -0.0512   -1.1853    0.3681 C   0  0  0  0  0  0  0  0  0  0  0  0
    1.2158   -0.8187    0.8317 C   0  0  0  0  0  0  0  0  0  0  0  0
    1.7676    0.4049    0.4497 C   0  0  0  0  0  0  0  0  0  0  0  0
    2.9980    0.7748    0.8924 N   0  0  0  0  0  0  0  0  0  0  0  0
    3.5432    1.9631    0.5219 C   0  0  0  0  0  0  0  0  0  0  0  0
    4.8087    2.3364    0.9816 C   0  0  0  0  0  0  0  0  0  0  0  0
    5.3572    3.5625    0.5912 C   0  0  0  0  0  0  0  0  0  0  0  0
    4.6428    4.4155   -0.2578 C   0  0  0  0  0  0  0  0  0  0  0  0
    5.3368    5.9476   -0.7411 Cl  0  0  0  0  0  0  0  0  0  0  0  0
    3.3754    4.0472   -0.7213 C   0  0  0  0  0  0  0  0  0  0  0  0
    2.8221    2.8239   -0.3349 C   0  0  0  0  0  0  0  0  0  0  0  0
    1.5919    2.4532   -0.7775 N   0  0  0  0  0  0  0  0  0  0  0  0
    1.0468    1.2653   -0.4058 C   0  0  0  0  0  0  0  0  0  0  0  0
   -0.2181    0.8919   -0.8651 C   0  0  0  0  0  0  0  0  0  0  0  0
   -2.8781   -1.7907   -0.3975 N   0  0  0  0  0  0  0  0  0  0  0  0
   -2.8364   -2.0094    1.0585 C   0  0  0  0  0  0  0  0  0  0  0  0
   -2.7773   -3.5085    1.3945 C   0  0  0  0  0  0  0  0  0  0  0  0
   -3.7455   -4.2493    0.5338 C   0  0  0  0  0  0  0  0  0  0  0  0
   -4.2016   -5.4985    0.7072 N   0  0  0  0  0  0  0  0  0  0  0  0
   -4.9496   -5.7298   -0.3406 O   0  0  0  0  0  0  0  0  0  0  0  0
   -5.0035   -4.7351   -1.1881 N   0  0  0  0  0  0  0  0  0  0  0  0
   -4.2231   -3.7866   -0.6503 C   0  0  0  0  0  0  0  0  0  0  0  0
   -3.9497   -2.4203   -1.1841 C   0  0  0  0  0  0  0  0  0  0  0  0
  1  2  2  0
  2  3  1  0
  3  4  2  0
  4  5  1  0
  5  6  2  0
  6  7  1  0
  7  8  2  0
  8  9  1  0
  9 10  2  0
 10 11  1  0
 11 12  1  0
 11 13  2  0
 13 14  1  0
 14 15  2  0
 15 16  1  0
 16 17  2  0
  2 18  1  0
 18 19  1  0
 19 20  1  0
 20 21  1  0
 21 22  2  0
 22 23  1  0
 23 24  1  0
 24 25  2  0
 25 26  1  0
 17  3  1  0
 26 18  1  0
 16  6  1  0
 25 21  1  0
 14  8  1  0
M  END
$$$$
3
     RDKit          3D

 27 30  0  0  0  0  0  0  0  0999 V2000
    0.9066    6.5193    3.5800 N   0  0  0  0  0  0  0  0  0  0  0  0
    1.3295    5.2813    3.1500 O   0  0  0  0  0  0  0  0  0  0  0  0
    2.5850    4.7871    3.5056 C   0  0  0  0  0  0  0  0  0  0  0  0
    3.3521    5.4771    4.2318 O   0  0  0  0  0  0  0  0  0  0  0  0
    3.0112    3.4604    3.0318 C   0  0  0  0  0  0  0  0  0  0  0  0
    4.2686    2.9493    3.3796 C   0  0  0  0  0  0  0  0  0  0  0  0
    4.6671    1.6899    2.9268 C   0  0  0  0  0  0  0  0  0  0  0  0
    3.8109    0.9333    2.1233 C   0  0  0  0  0  0  0  0  0  0  0  0
    2.5465    1.4269    1.7630 C   0  0  0  0  0  0  0  0  0  0  0  0
    1.6373    0.6245    0.9102 C   0  0  0  0  0  0  0  0  0  0  0  0
    0.3736    1.1182    0.5504 C   0  0  0  0  0  0  0  0  0  0  0  0
   -0.4833    0.3623   -0.2533 C   0  0  0  0  0  0  0  0  0  0  0  0
   -0.0965   -0.9050   -0.7159 C   0  0  0  0  0  0  0  0  0  0  0  0
   -1.0056   -1.7070   -1.5685 C   0  0  0  0  0  0  0  0  0  0  0  0
   -0.6256   -2.9735   -2.0339 C   0  0  0  0  0  0  0  0  0  0  0  0
   -1.4894   -3.7194   -2.8358 C   0  0  0  0  0  0  0  0  0  0  0  0
   -2.7412   -3.1932   -3.1731 C   0  0  0  0  0  0  0  0  0  0  0  0
   -3.6432   -3.9424   -3.9952 N   0  0  0  0  0  0  0  0  0  0  0  0
   -4.8704   -3.5735   -4.4013 C   0  0  0  0  0  0  0  0  0  0  0  0
   -5.3853   -4.5631   -5.1589 N   0  0  0  0  0  0  0  0  0  0  0  0
   -4.4618   -5.5140   -5.1988 N   0  0  0  0  0  0  0  0  0  0  0  0
   -3.4060   -5.1413   -4.4952 N   0  0  0  0  0  0  0  0  0  0  0  0
   -3.0978   -1.9615   -2.7141 N   0  0  0  0  0  0  0  0  0  0  0  0
   -2.2697   -1.2194   -1.9315 C   0  0  0  0  0  0  0  0  0  0  0  0
    1.1670   -1.3989   -0.3562 C   0  0  0  0  0  0  0  0  0  0  0  0
    2.0240   -0.6429    0.4474 C   0  0  0  0  0  0  0  0  0  0  0  0
    2.1585    2.6953    2.2255 C   0  0  0  0  0  0  0  0  0  0  0  0
  1  2  1  0
  2  3  1  0
  3  4  2  0
  3  5  1  0
  5  6  2  0
  6  7  1  0
  7  8  2  0
  8  9  1  0
  9 10  1  0
 10 11  2  0
 11 12  1  0
 12 13  2  0
 13 14  1  0
 14 15  2  0
 15 16  1  0
 16 17  2  0
 17 18  1  0
 18 19  1  0
 19 20  2  0
 20 21  1  0
 21 22  2  0
 17 23  1  0
 23 24  2  0
 13 25  1  0
 25 26  2  0
  9 27  2  0
 27  5  1  0
 26 10  1  0
 24 14  1  0
 22 18  1  0
M  END
$$$$
4
     RDKit          3D

 25 29  0  0  0  0  0  0  0  0999 V2000
   -3.6256   -0.1527    1.9209 O   0  0  0  0  0  0  0  0  0  0  0  0
   -2.8733   -0.6234    1.0251 C   0  0  0  0  0  0  0  0  0  0  0  0
   -1.5159   -0.0576    0.8574 C   0  0  0  0  0  0  0  0  0  0  0  0
   -0.5022   -0.7791    0.2115 C   0  0  0  0  0  0  0  0  0  0  0  0
    0.7806   -0.2415    0.0831 C   0  0  0  0  0  0  0  0  0  0  0  0
    1.0792    1.0257    0.6050 C   0  0  0  0  0  0  0  0  0  0  0  0
    2.3983    1.5916    0.4773 N   0  0  0  0  0  0  0  0  0  0  0  0
    2.7989    2.8017    0.9484 C   0  0  0  0  0  0  0  0  0  0  0  0
    4.1042    3.0675    0.6767 N   0  0  0  0  0  0  0  0  0  0  0  0
    4.5159    1.9744    0.0124 C   0  0  0  0  0  0  0  0  0  0  0  0
    5.7861    1.7259   -0.5019 C   0  0  0  0  0  0  0  0  0  0  0  0
    5.9888    0.5024   -1.1663 C   0  0  0  0  0  0  0  0  0  0  0  0
    4.9330   -0.4265   -1.2976 C   0  0  0  0  0  0  0  0  0  0  0  0
    3.6619   -0.1429   -0.7658 C   0  0  0  0  0  0  0  0  0  0  0  0
    3.4948    1.0798   -0.1124 C   0  0  0  0  0  0  0  0  0  0  0  0
    0.0676    1.7408    1.2639 C   0  0  0  0  0  0  0  0  0  0  0  0
   -1.2157    1.2030    1.3918 C   0  0  0  0  0  0  0  0  0  0  0  0
   -3.3824   -1.7352    0.1969 C   0  0  0  0  0  0  0  0  0  0  0  0
   -4.4580   -2.4845    0.5336 N   0  0  0  0  0  0  0  0  0  0  0  0
   -4.7943   -3.2391   -0.5073 N   0  0  0  0  0  0  0  0  0  0  0  0
   -3.8946   -3.0001   -1.4765 C   0  0  0  0  0  0  0  0  0  0  0  0
   -3.0152   -2.0678   -1.0910 C   0  0  0  0  0  0  0  0  0  0  0  0
   -2.4942   -1.2712   -2.2187 C   0  0  0  0  0  0  0  0  0  0  0  0
   -3.0843   -2.0006   -3.4443 C   0  0  0  0  0  0  0  0  0  0  0  0
   -4.0958   -3.0492   -2.9349 C   0  0  0  0  0  0  0  0  0  0  0  0
  1  2  2  0
  2  3  1  0
  3  4  2  0
  4  5  1  0
  5  6  2  0
  6  7  1  0
  7  8  1  0
  8  9  2  0
  9 10  1  0
 10 11  2  0
 11 12  1  0
 12 13  2  0
 13 14  1  0
 14 15  2  0
  6 16  1  0
 16 17  2  0
  2 18  1  0
 18 19  1  0
 19 20  1  0
 20 21  2  0
 21 22  1  0
 22 23  1  0
 23 24  1  0
 24 25  1  0
 17  3  1  0
 22 18  2  0
 15  7  1  0
 25 21  1  0
 15 10  1  0
M  END
$$$$
5
     RDKit          3D

 27 31  0  0  0  0  0  0  0  0999 V2000
   -1.5583    3.7764   -0.5451 O   0  0  0  0  0  0  0  0  0  0  0  0
   -0.6896    2.8620   -0.4974 C   0  0  0  0  0  0  0  0  0  0  0  0
    0.5748    3.1179    0.2314 C   0  0  0  0  0  0  0  0  0  0  0  0
    0.9465    4.4363    0.5402 C   0  0  0  0  0  0  0  0  0  0  0  0
    2.1217    4.7002    1.2501 C   0  0  0  0  0  0  0  0  0  0  0  0
    2.9362    3.6453    1.6659 C   0  0  0  0  0  0  0  0  0  0  0  0
    4.1131    3.9000    2.3755 C   0  0  0  0  0  0  0  0  0  0  0  0
    4.9214    2.8370    2.7914 C   0  0  0  0  0  0  0  0  0  0  0  0
    4.5549    1.5187    2.4996 C   0  0  0  0  0  0  0  0  0  0  0  0
    3.3784    1.2565    1.7902 C   0  0  0  0  0  0  0  0  0  0  0  0
    2.5666    2.3139    1.3708 C   0  0  0  0  0  0  0  0  0  0  0  0
    1.3903    2.0601    0.6620 C   0  0  0  0  0  0  0  0  0  0  0  0
   -0.9636    1.6016   -1.1356 N   0  0  0  0  0  0  0  0  0  0  0  0
    0.1259    0.8015   -1.7083 C   0  0  0  0  0  0  0  0  0  0  0  0
   -0.4068   -0.3876   -2.5059 C   0  0  0  0  0  0  0  0  0  0  0  0
   -1.4703   -1.0598   -1.7563 N   0  0  0  0  0  0  0  0  0  0  0  0
   -1.5017   -2.4941   -1.6643 C   0  0  0  0  0  0  0  0  0  0  0  0
   -0.4885   -3.2843   -2.2652 C   0  0  0  0  0  0  0  0  0  0  0  0
   -0.5239   -4.6859   -2.1684 C   0  0  0  0  0  0  0  0  0  0  0  0
   -1.5886   -5.2251   -1.4636 C   0  0  0  0  0  0  0  0  0  0  0  0
   -1.8665   -6.5159   -1.2182 N   0  0  0  0  0  0  0  0  0  0  0  0
   -2.9939   -6.4757   -0.5037 N   0  0  0  0  0  0  0  0  0  0  0  0
   -3.3918   -5.2186   -0.3178 N   0  0  0  0  0  0  0  0  0  0  0  0
   -2.5128   -4.4453   -0.9178 N   0  0  0  0  0  0  0  0  0  0  0  0
   -2.5141   -3.1178   -0.9871 N   0  0  0  0  0  0  0  0  0  0  0  0
   -2.5431   -0.2713   -1.1395 C   0  0  0  0  0  0  0  0  0  0  0  0
   -2.3543    1.2239   -1.3893 C   0  0  0  0  0  0  0  0  0  0  0  0
  1  2  2  0
  2  3  1  0
  3  4  2  0
  4  5  1  0
  5  6  2  0
  6  7  1  0
  7  8  2  0
  8  9  1  0
  9 10  2  0
 10 11  1  0
 11 12  2  0
  2 13  1  0
 13 14  1  0
 14 15  1  0
 15 16  1  0
 16 17  1  0
 17 18  1  0
 18 19  2  0
 19 20  1  0
 20 21  2  0
 21 22  1  0
 22 23  2  0
 23 24  1  0
 24 25  1  0
 16 26  1  0
 26 27  1  0
 12  3  1  0
 27 13  1  0
 11  6  1  0
 25 17  2  0
 24 20  1  0
M  END
$$$$
6
     RDKit          3D

 27 31  0  0  0  0  0  0  0  0999 V2000
    0.5603    2.8444   -0.9311 O   0  0  0  0  0  0  0  0  0  0  0  0
    0.7724    1.7270   -0.3860 C   0  0  0  0  0  0  0  0  0  0  0  0
    1.9086    1.5353    0.4709 N   0  0  0  0  0  0  0  0  0  0  0  0
    2.9029    2.5100    0.8141 C   0  0  0  0  0  0  0  0  0  0  0  0
    2.8558    3.8356    0.3096 C   0  0  0  0  0  0  0  0  0  0  0  0
    3.8403    4.7793    0.6571 C   0  0  0  0  0  0  0  0  0  0  0  0
    4.8534    4.3560    1.5109 C   0  0  0  0  0  0  0  0  0  0  0  0
    5.8887    5.0676    1.9762 N   0  0  0  0  0  0  0  0  0  0  0  0
    6.5963    4.2550    2.7565 N   0  0  0  0  0  0  0  0  0  0  0  0
    6.0232    3.0252    2.7964 C   0  0  0  0  0  0  0  0  0  0  0  0
    4.9049    3.0860    1.9986 C   0  0  0  0  0  0  0  0  0  0  0  0
    3.9493    2.1275    1.6765 C   0  0  0  0  0  0  0  0  0  0  0  0
   -0.1542    0.6075   -0.6307 C   0  0  0  0  0  0  0  0  0  0  0  0
    0.0685   -0.6401   -0.0318 C   0  0  0  0  0  0  0  0  0  0  0  0
   -0.8095   -1.7024   -0.2632 C   0  0  0  0  0  0  0  0  0  0  0  0
   -1.9227   -1.5317   -1.0968 C   0  0  0  0  0  0  0  0  0  0  0  0
   -2.8477   -2.6508   -1.3406 C   0  0  0  0  0  0  0  0  0  0  0  0
   -3.9432   -2.5410   -2.1404 N   0  0  0  0  0  0  0  0  0  0  0  0
   -4.4770   -3.7683   -2.0740 C   0  0  0  0  0  0  0  0  0  0  0  0
   -5.6275   -4.2305   -2.7082 C   0  0  0  0  0  0  0  0  0  0  0  0
   -5.9940   -5.5711   -2.4853 C   0  0  0  0  0  0  0  0  0  0  0  0
   -5.2128   -6.3991   -1.6481 C   0  0  0  0  0  0  0  0  0  0  0  0
   -4.0559   -5.8963   -1.0238 C   0  0  0  0  0  0  0  0  0  0  0  0
   -3.7246   -4.5658   -1.2675 C   0  0  0  0  0  0  0  0  0  0  0  0
   -2.6785   -3.8815   -0.7848 N   0  0  0  0  0  0  0  0  0  0  0  0
   -2.1466   -0.2852   -1.6962 C   0  0  0  0  0  0  0  0  0  0  0  0
   -1.2685    0.7772   -1.4648 C   0  0  0  0  0  0  0  0  0  0  0  0
  1  2  2  0
  2  3  1  0
  3  4  1  0
  4  5  2  0
  5  6  1  0
  6  7  2  0
  7  8  1  0
  8  9  1  0
  9 10  2  0
 10 11  1  0
 11 12  2  0
  2 13  1  0
 13 14  2  0
 14 15  1  0
 15 16  2  0
 16 17  1  0
 17 18  2  0
 18 19  1  0
 19 20  2  0
 20 21  1  0
 21 22  2  0
 22 23  1  0
 23 24  2  0
 24 25  1  0
 16 26  1  0
 26 27  2  0
 12  4  1  0
 27 13  1  0
 11  7  1  0
 25 17  1  0
 24 19  1  0
M  END
$$$$
7
     RDKit          3D

 27 31  0  0  0  0  0  0  0  0999 V2000
   -2.2795    0.7287   -0.7467 O   0  0  0  0  0  0  0  0  0  0  0  0
   -0.9385    0.6439   -0.3913 C   0  0  0  0  0  0  0  0  0  0  0  0
   -0.4107   -0.4458    0.1826 C   0  0  0  0  0  0  0  0  0  0  0  0
    1.0368   -0.4207    0.6010 C   0  0  0  0  0  0  0  0  0  0  0  0
    1.2555    0.4264    1.8621 C   0  0  0  0  0  0  0  0  0  0  0  0
    1.3034    1.8182    1.5427 O   0  0  0  0  0  0  0  0  0  0  0  0
    1.9308    2.2718    0.3800 C   0  0  0  0  0  0  0  0  0  0  0  0
    2.2319    3.6272    0.2234 C   0  0  0  0  0  0  0  0  0  0  0  0
    2.8729    4.0730   -0.9359 C   0  0  0  0  0  0  0  0  0  0  0  0
    3.2141    3.1649   -1.9423 C   0  0  0  0  0  0  0  0  0  0  0  0
    3.8590    3.6128   -3.0985 C   0  0  0  0  0  0  0  0  0  0  0  0
    4.1948    2.7063   -4.1084 C   0  0  0  0  0  0  0  0  0  0  0  0
    3.8858    1.3500   -3.9667 C   0  0  0  0  0  0  0  0  0  0  0  0
    3.2401    0.8931   -2.8140 C   0  0  0  0  0  0  0  0  0  0  0  0
    2.9014    1.7917   -1.7941 C   0  0  0  0  0  0  0  0  0  0  0  0
    2.2466    1.3534   -0.6334 C   0  0  0  0  0  0  0  0  0  0  0  0
    1.8893    0.0085   -0.4672 O   0  0  0  0  0  0  0  0  0  0  0  0
   -1.2069   -1.6133    0.4677 N   0  0  0  0  0  0  0  0  0  0  0  0
   -0.7739   -2.5520    1.4987 C   0  0  0  0  0  0  0  0  0  0  0  0
   -1.9574   -2.9079    2.3891 C   0  0  0  0  0  0  0  0  0  0  0  0
   -3.1602   -3.2891    1.5775 C   0  0  0  0  0  0  0  0  0  0  0  0
   -4.1726   -4.0383    2.1855 C   0  0  0  0  0  0  0  0  0  0  0  0
   -5.3340   -4.3588    1.4775 C   0  0  0  0  0  0  0  0  0  0  0  0
   -5.4926   -3.9229    0.1597 C   0  0  0  0  0  0  0  0  0  0  0  0
   -4.4912   -3.1636   -0.4515 C   0  0  0  0  0  0  0  0  0  0  0  0
   -3.3289   -2.8320    0.2519 C   0  0  0  0  0  0  0  0  0  0  0  0
   -2.2539   -2.0557   -0.4558 C   0  0  0  0  0  0  0  0  0  0  0  0
  1  2  1  0
  2  3  2  3
  3  4  1  0
  4  5  1  0
  5  6  1  0
  6  7  1  0
  7  8  2  0
  8  9  1  0
  9 10  2  0
 10 11  1  0
 11 12  2  0
 12 13  1  0
 13 14  2  0
 14 15  1  0
 15 16  2  0
 16 17  1  0
  3 18  1  0
 18 19  1  0
 19 20  1  0
 20 21  1  0
 21 22  2  0
 22 23  1  0
 23 24  2  0
 24 25  1  0
 25 26  2  0
 26 27  1  0
 17  4  1  0
 27 18  1  0
 16  7  1  0
 26 21  1  0
 15 10  1  0
M  END
$$$$
8
     RDKit          3D

 27 30  0  0  0  0  0  0  0  0999 V2000
    0.7072    3.3286    7.7198 N   0  0  0  0  0  0  0  0  0  0  0  0
    0.4630    2.5654    6.5712 N   0  0  0  0  0  0  0  0  0  0  0  0
    0.8898    3.0123    5.2832 C   0  0  0  0  0  0  0  0  0  0  0  0
    1.4966    4.1128    5.1796 O   0  0  0  0  0  0  0  0  0  0  0  0
    0.6338    2.2088    4.0667 C   0  0  0  0  0  0  0  0  0  0  0  0
    1.0686    2.6949    2.8685 N   0  0  0  0  0  0  0  0  0  0  0  0
    0.8778    2.0261    1.7014 C   0  0  0  0  0  0  0  0  0  0  0  0
    1.3407    2.5629    0.4980 C   0  0  0  0  0  0  0  0  0  0  0  0
    1.1401    1.8677   -0.6989 C   0  0  0  0  0  0  0  0  0  0  0  0
    0.4774    0.6339   -0.7046 C   0  0  0  0  0  0  0  0  0  0  0  0
    0.2943   -0.0433   -1.9553 N   0  0  0  0  0  0  0  0  0  0  0  0
   -0.3550   -1.3069   -2.1644 C   0  0  0  0  0  0  0  0  0  0  0  0
   -0.8404   -1.9480   -1.1928 O   0  0  0  0  0  0  0  0  0  0  0  0
   -0.4549   -1.8593   -3.5267 C   0  0  0  0  0  0  0  0  0  0  0  0
    0.0870   -1.1471   -4.6247 C   0  0  0  0  0  0  0  0  0  0  0  0
    0.0000   -1.6603   -5.9313 C   0  0  0  0  0  0  0  0  0  0  0  0
   -0.6356   -2.8870   -6.0978 C   0  0  0  0  0  0  0  0  0  0  0  0
   -1.1575   -3.5762   -5.0522 C   0  0  0  0  0  0  0  0  0  0  0  0
   -1.0907   -3.1004   -3.7457 C   0  0  0  0  0  0  0  0  0  0  0  0
   -1.7222   -4.7496   -5.5107 O   0  0  0  0  0  0  0  0  0  0  0  0
   -1.5444   -4.8018   -6.9333 C   0  0  0  0  0  0  0  0  0  0  0  0
   -0.8464   -3.5932   -7.2652 O   0  0  0  0  0  0  0  0  0  0  0  0
    0.0129    0.0961    0.5061 C   0  0  0  0  0  0  0  0  0  0  0  0
    0.2108    0.7864    1.7038 C   0  0  0  0  0  0  0  0  0  0  0  0
   -0.2451    0.2634    2.9107 C   0  0  0  0  0  0  0  0  0  0  0  0
   -0.0394    0.9660    4.0999 C   0  0  0  0  0  0  0  0  0  0  0  0
   -0.5064    0.4177    5.2884 O   0  0  0  0  0  0  0  0  0  0  0  0
  1  2  1  0
  2  3  1  0
  3  4  2  0
  3  5  1  0
  5  6  2  0
  6  7  1  0
  7  8  2  0
  8  9  1  0
  9 10  2  0
 10 11  1  0
 11 12  1  0
 12 13  2  0
 12 14  1  0
 14 15  2  0
 15 16  1  0
 16 17  2  0
 17 18  1  0
 18 19  2  0
 18 20  1  0
 20 21  1  0
 21 22  1  0
 10 23  1  0
 23 24  2  0
 24 25  1  0
 25 26  2  0
 26 27  1  0
 26  5  1  0
 24  7  1  0
 19 14  1  0
 22 17  1  0
M  END
$$$$
10
     RDKit          3D

 26 30  0  0  0  0  0  0  0  0999 V2000
   -1.3023    3.0050   -0.1360 O   0  0  0  0  0  0  0  0  0  0  0  0
   -0.8550    1.8266   -0.1296 C   0  0  0  0  0  0  0  0  0  0  0  0
    0.2873    1.4738    0.6623 N   0  0  0  0  0  0  0  0  0  0  0  0
    1.0467    2.3446    1.5115 C   0  0  0  0  0  0  0  0  0  0  0  0
    0.7209    3.7175    1.6573 C   0  0  0  0  0  0  0  0  0  0  0  0
    1.4785    4.5557    2.4957 C   0  0  0  0  0  0  0  0  0  0  0  0
    2.5521    3.9814    3.1690 C   0  0  0  0  0  0  0  0  0  0  0  0
    3.4054    4.5779    4.0118 N   0  0  0  0  0  0  0  0  0  0  0  0
    4.2401    3.5659    4.3701 C   0  0  0  0  0  0  0  0  0  0  0  0
    3.9394    2.3750    3.7867 N   0  0  0  0  0  0  0  0  0  0  0  0
    2.8704    2.6684    3.0349 C   0  0  0  0  0  0  0  0  0  0  0  0
    2.1438    1.8095    2.2147 C   0  0  0  0  0  0  0  0  0  0  0  0
   -1.5084    0.7969   -0.9423 C   0  0  0  0  0  0  0  0  0  0  0  0
   -2.6104    0.9705   -1.7549 C   0  0  0  0  0  0  0  0  0  0  0  0
   -2.8883   -0.2219   -2.3208 N   0  0  0  0  0  0  0  0  0  0  0  0
   -1.9479   -1.0560   -1.8276 C   0  0  0  0  0  0  0  0  0  0  0  0
   -1.8576   -2.4817   -2.1731 C   0  0  0  0  0  0  0  0  0  0  0  0
   -2.7880   -3.0588   -3.0706 C   0  0  0  0  0  0  0  0  0  0  0  0
   -2.7107   -4.4221   -3.4081 C   0  0  0  0  0  0  0  0  0  0  0  0
   -1.6906   -5.1701   -2.8273 C   0  0  0  0  0  0  0  0  0  0  0  0
   -0.7956   -4.6229   -1.9664 C   0  0  0  0  0  0  0  0  0  0  0  0
   -0.8403   -3.2781   -1.6087 C   0  0  0  0  0  0  0  0  0  0  0  0
    0.0954   -5.5924   -1.5515 O   0  0  0  0  0  0  0  0  0  0  0  0
   -0.2611   -6.8261   -2.1910 C   0  0  0  0  0  0  0  0  0  0  0  0
   -1.4060   -6.5104   -2.9958 O   0  0  0  0  0  0  0  0  0  0  0  0
   -1.1231   -0.4521   -1.0051 O   0  0  0  0  0  0  0  0  0  0  0  0
  1  2  2  0
  2  3  1  0
  3  4  1  0
  4  5  2  0
  5  6  1  0
  6  7  2  0
  7  8  1  0
  8  9  2  0
  9 10  1  0
 10 11  1  0
 11 12  2  0
  2 13  1  0
 13 14  2  0
 14 15  1  0
 15 16  2  0
 16 17  1  0
 17 18  2  0
 18 19  1  0
 19 20  2  0
 20 21  1  0
 21 22  2  0
 21 23  1  0
 23 24  1  0
 24 25  1  0
 16 26  1  0
 12  4  1  0
 26 13  1  0
 11  7  1  0
 22 17  1  0
 25 20  1  0
M  END
$$$$
11
     RDKit          3D

 23 26  0  0  0  0  0  0  0  0999 V2000
   -1.8435    1.0104    0.4019 O   0  0  0  0  0  0  0  0  0  0  0  0
   -1.4218   -0.1723    0.2878 C   0  0  0  0  0  0  0  0  0  0  0  0
   -0.8752   -0.8487    1.4232 N   0  0  0  0  0  0  0  0  0  0  0  0
   -0.6987   -0.2062    2.7182 C   0  0  0  0  0  0  0  0  0  0  0  0
    0.4910    0.6919    2.6925 C   0  0  0  0  0  0  0  0  0  0  0  0
    1.7919    0.1407    2.7618 C   0  0  0  0  0  0  0  0  0  0  0  0
    2.9258    0.9734    2.7208 C   0  0  0  0  0  0  0  0  0  0  0  0
    2.7077    2.3439    2.6080 C   0  0  0  0  0  0  0  0  0  0  0  0
    3.6253    3.3180    2.5495 N   0  0  0  0  0  0  0  0  0  0  0  0
    2.8708    4.4443    2.4426 C   0  0  0  0  0  0  0  0  0  0  0  0
    1.5317    4.2081    2.4324 N   0  0  0  0  0  0  0  0  0  0  0  0
    1.4592    2.8749    2.5383 C   0  0  0  0  0  0  0  0  0  0  0  0
    0.3138    2.0841    2.5756 C   0  0  0  0  0  0  0  0  0  0  0  0
   -1.5065   -0.8457   -1.0193 C   0  0  0  0  0  0  0  0  0  0  0  0
   -2.0498   -0.2504   -2.1070 N   0  0  0  0  0  0  0  0  0  0  0  0
   -1.9331   -1.1519   -3.1001 C   0  0  0  0  0  0  0  0  0  0  0  0
   -1.3596   -2.3175   -2.6548 C   0  0  0  0  0  0  0  0  0  0  0  0
   -1.0589   -2.1280   -1.3277 C   0  0  0  0  0  0  0  0  0  0  0  0
   -0.2488   -3.2854   -0.2825 Cl  0  0  0  0  0  0  0  0  0  0  0  0
   -1.0243   -3.4777   -3.5402 C   0  0  0  0  0  0  0  0  0  0  0  0
   -1.8454   -3.4086   -4.8355 C   0  0  0  0  0  0  0  0  0  0  0  0
   -1.8104   -1.9969   -5.4396 C   0  0  0  0  0  0  0  0  0  0  0  0
   -2.4521   -0.9719   -4.4928 C   0  0  0  0  0  0  0  0  0  0  0  0
  1  2  2  0
  2  3  1  0
  3  4  1  0
  4  5  1  0
  5  6  2  0
  6  7  1  0
  7  8  2  0
  8  9  1  0
  9 10  1  0
 10 11  2  0
 11 12  1  0
 12 13  2  0
  2 14  1  0
 14 15  1  0
 15 16  1  0
 16 17  2  0
 17 18  1  0
 18 19  1  0
 17 20  1  0
 20 21  1  0
 21 22  1  0
 22 23  1  0
 13  5  1  0
 18 14  2  0
 12  8  1  0
 23 16  1  0
M  END
$$$$
12
     RDKit          3D

 26 29  0  0  0  0  0  0  0  0999 V2000
    1.7707   -3.9980    7.7824 N   0  0  0  0  0  0  0  0  0  0  0  0
    2.4775   -3.1072    6.9648 N   0  0  0  0  0  0  0  0  0  0  0  0
    1.9351   -2.6575    5.7250 C   0  0  0  0  0  0  0  0  0  0  0  0
    0.8017   -3.0630    5.3509 O   0  0  0  0  0  0  0  0  0  0  0  0
    2.6954   -1.7458    4.9219 N   0  0  0  0  0  0  0  0  0  0  0  0
    2.3129   -1.1909    3.6558 C   0  0  0  0  0  0  0  0  0  0  0  0
    1.0887   -1.5041    3.0461 C   0  0  0  0  0  0  0  0  0  0  0  0
    0.7500   -0.9437    1.8115 C   0  0  0  0  0  0  0  0  0  0  0  0
    1.6310   -0.0637    1.1716 C   0  0  0  0  0  0  0  0  0  0  0  0
    1.2718    0.5236   -0.1263 C   0  0  0  0  0  0  0  0  0  0  0  0
    2.0516    1.3784   -0.8175 N   0  0  0  0  0  0  0  0  0  0  0  0
    1.3870    1.6782   -1.9226 N   0  0  0  0  0  0  0  0  0  0  0  0
    0.2281    0.9948   -1.8625 C   0  0  0  0  0  0  0  0  0  0  0  0
   -0.8119    1.0402   -2.8936 C   0  0  0  0  0  0  0  0  0  0  0  0
   -0.6441    1.8085   -4.0050 N   0  0  0  0  0  0  0  0  0  0  0  0
   -1.5809    1.8615   -4.9537 N   0  0  0  0  0  0  0  0  0  0  0  0
   -2.7290    1.1495   -4.8365 C   0  0  0  0  0  0  0  0  0  0  0  0
   -3.7120    1.2025   -5.8277 C   0  0  0  0  0  0  0  0  0  0  0  0
   -4.8865    0.4566   -5.6788 C   0  0  0  0  0  0  0  0  0  0  0  0
   -5.0759   -0.3390   -4.5422 C   0  0  0  0  0  0  0  0  0  0  0  0
   -4.0916   -0.3926   -3.5488 C   0  0  0  0  0  0  0  0  0  0  0  0
   -2.9177    0.3512   -3.6948 C   0  0  0  0  0  0  0  0  0  0  0  0
   -1.9512    0.3139   -2.7445 N   0  0  0  0  0  0  0  0  0  0  0  0
    0.1499    0.2840   -0.7632 O   0  0  0  0  0  0  0  0  0  0  0  0
    2.8535    0.2500    1.7790 C   0  0  0  0  0  0  0  0  0  0  0  0
    3.1908   -0.3113    3.0139 C   0  0  0  0  0  0  0  0  0  0  0  0
  1  2  1  0
  2  3  1  0
  3  4  2  0
  3  5  1  0
  5  6  1  0
  6  7  2  0
  7  8  1  0
  8  9  2  0
  9 10  1  0
 10 11  2  0
 11 12  1  0
 12 13  2  0
 13 14  1  0
 14 15  2  0
 15 16  1  0
 16 17  2  0
 17 18  1  0
 18 19  2  0
 19 20  1  0
 20 21  2  0
 21 22  1  0
 22 23  2  0
 13 24  1  0
  9 25  1  0
 25 26  2  0
 26  6  1  0
 24 10  1  0
 23 14  1  0
 22 17  1  0
M  END
$$$$
13
     RDKit          3D

 27 31  0  0  0  0  0  0  0  0999 V2000
   -0.0735    1.9925   -3.4906 O   0  0  0  0  0  0  0  0  0  0  0  0
    0.1264    1.3578   -2.4202 C   0  0  0  0  0  0  0  0  0  0  0  0
    1.4021    1.4020   -1.7685 N   0  0  0  0  0  0  0  0  0  0  0  0
    2.5470    2.1322   -2.2253 C   0  0  0  0  0  0  0  0  0  0  0  0
    2.5174    2.8800   -3.3704 N   0  0  0  0  0  0  0  0  0  0  0  0
    3.6208    3.5746   -3.7970 C   0  0  0  0  0  0  0  0  0  0  0  0
    4.7852    3.5346   -3.0809 N   0  0  0  0  0  0  0  0  0  0  0  0
    4.8100    2.7928   -1.9477 C   0  0  0  0  0  0  0  0  0  0  0  0
    5.8475    2.6304   -1.1183 N   0  0  0  0  0  0  0  0  0  0  0  0
    5.3332    1.8060   -0.1641 C   0  0  0  0  0  0  0  0  0  0  0  0
    4.0326    1.4598   -0.3741 N   0  0  0  0  0  0  0  0  0  0  0  0
    3.7371    2.1031   -1.5113 C   0  0  0  0  0  0  0  0  0  0  0  0
   -0.9605    0.5648   -1.8358 C   0  0  0  0  0  0  0  0  0  0  0  0
   -0.8753   -0.1763   -0.6696 C   0  0  0  0  0  0  0  0  0  0  0  0
   -2.1488   -0.7127   -0.5775 C   0  0  0  0  0  0  0  0  0  0  0  0
   -2.6401   -1.6012    0.4868 C   0  0  0  0  0  0  0  0  0  0  0  0
   -3.9606   -2.0732    0.4491 C   0  0  0  0  0  0  0  0  0  0  0  0
   -4.4426   -2.9123    1.4591 C   0  0  0  0  0  0  0  0  0  0  0  0
   -3.6031   -3.2829    2.5118 C   0  0  0  0  0  0  0  0  0  0  0  0
   -2.2746   -2.8371    2.5418 C   0  0  0  0  0  0  0  0  0  0  0  0
   -1.7974   -1.9891    1.5397 C   0  0  0  0  0  0  0  0  0  0  0  0
   -1.4412   -3.2533    3.5838 O   0  0  0  0  0  0  0  0  0  0  0  0
   -1.8249   -4.3294    4.4430 C   0  0  0  0  0  0  0  0  0  0  0  0
   -3.3210   -4.2493    4.7547 C   0  0  0  0  0  0  0  0  0  0  0  0
   -4.0698   -4.0987    3.5463 O   0  0  0  0  0  0  0  0  0  0  0  0
   -2.8750   -0.3101   -1.5939 O   0  0  0  0  0  0  0  0  0  0  0  0
   -2.1889    0.4651   -2.3773 N   0  0  0  0  0  0  0  0  0  0  0  0
  1  2  2  0
  2  3  1  0
  3  4  1  0
  4  5  2  0
  5  6  1  0
  6  7  2  0
  7  8  1  0
  8  9  1  0
  9 10  1  0
 10 11  2  0
 11 12  1  0
  2 13  1  0
 13 14  1  0
 14 15  2  0
 15 16  1  0
 16 17  2  0
 17 18  1  0
 18 19  2  0
 19 20  1  0
 20 21  2  0
 20 22  1  0
 22 23  1  0
 23 24  1  0
 24 25  1  0
 15 26  1  0
 26 27  1  0
 12  4  1  0
 27 13  2  0
 12  8  2  0
 21 16  1  0
 25 19  1  0
M  END
$$$$
14
     RDKit          3D

 28 32  0  0  0  0  0  0  0  0999 V2000
   -0.5101    3.5251   -0.1351 O   0  0  0  0  0  0  0  0  0  0  0  0
   -0.1427    2.3272    0.0084 C   0  0  0  0  0  0  0  0  0  0  0  0
    0.8923    1.9868    0.9436 N   0  0  0  0  0  0  0  0  0  0  0  0
    1.6143    2.8871    1.7949 C   0  0  0  0  0  0  0  0  0  0  0  0
    1.3595    4.2831    1.7941 C   0  0  0  0  0  0  0  0  0  0  0  0
    2.0779    5.1519    2.6364 C   0  0  0  0  0  0  0  0  0  0  0  0
    3.0408    4.5827    3.4622 C   0  0  0  0  0  0  0  0  0  0  0  0
    3.8969    5.1403    4.3825 C   0  0  0  0  0  0  0  0  0  0  0  0
    4.6250    4.1202    4.9039 N   0  0  0  0  0  0  0  0  0  0  0  0
    4.2609    2.9657    4.3521 N   0  0  0  0  0  0  0  0  0  0  0  0
    3.2921    3.2447    3.4698 C   0  0  0  0  0  0  0  0  0  0  0  0
    2.6008    2.3573    2.6503 C   0  0  0  0  0  0  0  0  0  0  0  0
   -0.7816    1.2671   -0.7909 C   0  0  0  0  0  0  0  0  0  0  0  0
   -1.8052    1.5918   -1.7178 C   0  0  0  0  0  0  0  0  0  0  0  0
   -2.4273    0.5931   -2.4903 C   0  0  0  0  0  0  0  0  0  0  0  0
   -1.9966   -0.7167   -2.3055 C   0  0  0  0  0  0  0  0  0  0  0  0
   -2.4389   -1.8238   -2.9241 N   0  0  0  0  0  0  0  0  0  0  0  0
   -1.6700   -2.7919   -2.3546 C   0  0  0  0  0  0  0  0  0  0  0  0
   -1.7738   -4.2162   -2.7035 C   0  0  0  0  0  0  0  0  0  0  0  0
   -0.9471   -5.1560   -2.0734 C   0  0  0  0  0  0  0  0  0  0  0  0
   -1.0426   -6.5115   -2.4023 C   0  0  0  0  0  0  0  0  0  0  0  0
   -1.9655   -6.9343   -3.3631 C   0  0  0  0  0  0  0  0  0  0  0  0
   -2.7929   -6.0017   -3.9951 C   0  0  0  0  0  0  0  0  0  0  0  0
   -3.6873   -6.4112   -4.9261 F   0  0  0  0  0  0  0  0  0  0  0  0
   -2.6975   -4.6463   -3.6663 C   0  0  0  0  0  0  0  0  0  0  0  0
   -0.8184   -2.3242   -1.4544 O   0  0  0  0  0  0  0  0  0  0  0  0
   -1.0152   -1.0348   -1.4180 C   0  0  0  0  0  0  0  0  0  0  0  0
   -0.3769   -0.0768   -0.6371 C   0  0  0  0  0  0  0  0  0  0  0  0
  1  2  2  0
  2  3  1  0
  3  4  1  0
  4  5  1  0
  5  6  2  0
  6  7  1  0
  7  8  2  0
  8  9  1  0
  9 10  1  0
 10 11  2  0
 11 12  1  0
  2 13  1  0
 13 14  2  0
 14 15  1  0
 15 16  2  0
 16 17  1  0
 17 18  2  0
 18 19  1  0
 19 20  2  0
 20 21  1  0
 21 22  2  0
 22 23  1  0
 23 24  1  0
 23 25  2  0
 18 26  1  0
 26 27  1  0
 27 28  2  0
 12  4  2  0
 28 13  1  0
 11  7  1  0
 27 16  1  0
 25 19  1  0
M  END
$$$$
15
     RDKit          3D

 26 29  0  0  0  0  0  0  0  0999 V2000
   -4.6387   -0.2416    4.4687 O   0  0  0  0  0  0  0  0  0  0  0  0
   -3.2882    0.0901    4.4613 C   0  0  0  0  0  0  0  0  0  0  0  0
   -2.4160   -0.4524    3.6082 C   0  0  0  0  0  0  0  0  0  0  0  0
   -1.0394   -0.0759    3.7506 N   0  0  0  0  0  0  0  0  0  0  0  0
   -0.0698   -0.0024    2.6981 C   0  0  0  0  0  0  0  0  0  0  0  0
    1.3010    0.0500    3.0370 C   0  0  0  0  0  0  0  0  0  0  0  0
    2.2883    0.1567    2.0407 C   0  0  0  0  0  0  0  0  0  0  0  0
    1.8629    0.2181    0.7170 C   0  0  0  0  0  0  0  0  0  0  0  0
    2.5959    0.3242   -0.4449 C   0  0  0  0  0  0  0  0  0  0  0  0
    1.6077    0.3461   -1.4369 C   0  0  0  0  0  0  0  0  0  0  0  0
    1.8686    0.4499   -2.8878 C   0  0  0  0  0  0  0  0  0  0  0  0
    3.1914    0.5370   -3.3493 C   0  0  0  0  0  0  0  0  0  0  0  0
    3.4637    0.6358   -4.7159 C   0  0  0  0  0  0  0  0  0  0  0  0
    2.4148    0.6486   -5.6367 C   0  0  0  0  0  0  0  0  0  0  0  0
    2.6843    0.7468   -6.9947 O   0  0  0  0  0  0  0  0  0  0  0  0
    1.0941    0.5626   -5.1913 C   0  0  0  0  0  0  0  0  0  0  0  0
    0.8154    0.4635   -3.8245 C   0  0  0  0  0  0  0  0  0  0  0  0
   -0.4789    0.3815   -3.4273 F   0  0  0  0  0  0  0  0  0  0  0  0
    0.3973    0.2619   -0.9124 O   0  0  0  0  0  0  0  0  0  0  0  0
    0.5388    0.1840    0.3830 C   0  0  0  0  0  0  0  0  0  0  0  0
   -0.4621    0.0811    1.3443 C   0  0  0  0  0  0  0  0  0  0  0  0
   -2.8196   -1.4834    2.6193 C   0  0  0  0  0  0  0  0  0  0  0  0
   -4.0733   -1.6172    2.0537 C   0  0  0  0  0  0  0  0  0  0  0  0
   -3.9822   -2.6988    1.1995 C   0  0  0  0  0  0  0  0  0  0  0  0
   -2.6848   -3.1668    1.2885 C   0  0  0  0  0  0  0  0  0  0  0  0
   -1.9764   -2.4233    2.1569 N   0  0  0  0  0  0  0  0  0  0  0  0
  1  2  1  0
  2  3  2  3
  3  4  1  0
  4  5  1  0
  5  6  2  0
  6  7  1  0
  7  8  2  0
  8  9  1  0
  9 10  2  0
 10 11  1  0
 11 12  2  0
 12 13  1  0
 13 14  2  0
 14 15  1  0
 14 16  1  0
 16 17  2  0
 17 18  1  0
 10 19  1  0
 19 20  1  0
 20 21  2  0
  3 22  1  0
 22 23  2  0
 23 24  1  0
 24 25  2  0
 25 26  1  0
 21  5  1  0
 26 22  1  0
 20  8  1  0
 17 11  1  0
M  END
$$$$
16
     RDKit          3D

 27 30  0  0  0  0  0  0  0  0999 V2000
   -0.9538    1.9510    6.3772 N   0  0  0  0  0  0  0  0  0  0  0  0
    0.0095    1.9828    5.3611 N   0  0  0  0  0  0  0  0  0  0  0  0
   -0.3352    2.3700    4.0295 C   0  0  0  0  0  0  0  0  0  0  0  0
   -1.5256    2.6883    3.7594 O   0  0  0  0  0  0  0  0  0  0  0  0
    0.6665    2.3940    3.0035 N   0  0  0  0  0  0  0  0  0  0  0  0
    2.0539    2.0519    3.3317 C   0  0  0  0  0  0  0  0  0  0  0  0
    2.9693    2.2170    2.1201 C   0  0  0  0  0  0  0  0  0  0  0  0
    2.3559    1.6055    0.9398 N   0  0  0  0  0  0  0  0  0  0  0  0
    3.1852    0.8473    0.0384 C   0  0  0  0  0  0  0  0  0  0  0  0
    4.4402    0.9147    0.1490 O   0  0  0  0  0  0  0  0  0  0  0  0
    2.6186   -0.0268   -1.0103 C   0  0  0  0  0  0  0  0  0  0  0  0
    3.3579   -0.6797   -1.9844 C   0  0  0  0  0  0  0  0  0  0  0  0
    2.4100   -1.3876   -2.7050 C   0  0  0  0  0  0  0  0  0  0  0  0
    1.1994   -1.1501   -2.1615 N   0  0  0  0  0  0  0  0  0  0  0  0
   -0.0493   -1.6965   -2.6122 C   0  0  0  0  0  0  0  0  0  0  0  0
   -0.0928   -2.5655   -3.7151 C   0  0  0  0  0  0  0  0  0  0  0  0
   -1.3086   -3.0976   -4.1547 C   0  0  0  0  0  0  0  0  0  0  0  0
   -2.4940   -2.7659   -3.4955 C   0  0  0  0  0  0  0  0  0  0  0  0
   -3.7133   -3.2939   -3.9291 C   0  0  0  0  0  0  0  0  0  0  0  0
   -4.8963   -2.9568   -3.2636 C   0  0  0  0  0  0  0  0  0  0  0  0
   -4.8631   -2.0920   -2.1643 C   0  0  0  0  0  0  0  0  0  0  0  0
   -3.6466   -1.5598   -1.7248 C   0  0  0  0  0  0  0  0  0  0  0  0
   -2.4605   -1.8923   -2.3849 C   0  0  0  0  0  0  0  0  0  0  0  0
   -1.2420   -1.3646   -1.9516 C   0  0  0  0  0  0  0  0  0  0  0  0
    1.3149   -0.3303   -1.1319 N   0  0  0  0  0  0  0  0  0  0  0  0
    0.9498    1.8861    0.6227 C   0  0  0  0  0  0  0  0  0  0  0  0
    0.3121    2.8205    1.6498 C   0  0  0  0  0  0  0  0  0  0  0  0
  1  2  1  0
  2  3  1  0
  3  4  2  0
  3  5  1  0
  5  6  1  0
  6  7  1  0
  7  8  1  0
  8  9  1  0
  9 10  2  0
  9 11  1  0
 11 12  1  0
 12 13  2  0
 13 14  1  0
 14 15  1  0
 15 16  2  0
 16 17  1  0
 17 18  2  0
 18 19  1  0
 19 20  2  0
 20 21  1  0
 21 22  2  0
 22 23  1  0
 23 24  2  0
 14 25  1  0
  8 26  1  0
 26 27  1  0
 27  5  1  0
 25 11  2  0
 24 15  1  0
 23 18  1  0
M  END
$$$$
17
     RDKit          3D

 25 28  0  0  0  0  0  0  0  0999 V2000
   -1.5551   -1.3264    7.8060 N   0  0  0  0  0  0  0  0  0  0  0  0
   -1.2630   -1.1346    6.4498 N   0  0  0  0  0  0  0  0  0  0  0  0
    0.0846   -1.1545    5.9755 C   0  0  0  0  0  0  0  0  0  0  0  0
    1.0313   -1.3474    6.7863 O   0  0  0  0  0  0  0  0  0  0  0  0
    0.3681   -0.9504    4.5444 C   0  0  0  0  0  0  0  0  0  0  0  0
    1.6836   -0.9675    4.0666 C   0  0  0  0  0  0  0  0  0  0  0  0
    1.9390   -0.7729    2.7088 C   0  0  0  0  0  0  0  0  0  0  0  0
    0.8694   -0.5611    1.8319 C   0  0  0  0  0  0  0  0  0  0  0  0
    1.1120   -0.3537    0.3980 C   0  0  0  0  0  0  0  0  0  0  0  0
    2.3365   -0.3510   -0.1656 N   0  0  0  0  0  0  0  0  0  0  0  0
    2.1207   -0.1385   -1.4277 O   0  0  0  0  0  0  0  0  0  0  0  0
    0.8338   -0.0152   -1.6413 C   0  0  0  0  0  0  0  0  0  0  0  0
    0.2450    0.2329   -2.9647 C   0  0  0  0  0  0  0  0  0  0  0  0
    1.0011    0.3553   -4.0841 N   0  0  0  0  0  0  0  0  0  0  0  0
    0.1127    0.5718   -5.0714 C   0  0  0  0  0  0  0  0  0  0  0  0
    0.4014    0.7628   -6.4212 C   0  0  0  0  0  0  0  0  0  0  0  0
   -0.6785    0.9753   -7.2974 C   0  0  0  0  0  0  0  0  0  0  0  0
   -2.0042    0.9919   -6.8122 C   0  0  0  0  0  0  0  0  0  0  0  0
   -2.2671    0.7963   -5.4447 C   0  0  0  0  0  0  0  0  0  0  0  0
   -1.1757    0.5886   -4.6037 C   0  0  0  0  0  0  0  0  0  0  0  0
   -1.1136    0.3725   -3.2502 C   0  0  0  0  0  0  0  0  0  0  0  0
   -2.4750    0.2942   -2.1423 Cl  0  0  0  0  0  0  0  0  0  0  0  0
    0.1279   -0.1443   -0.5013 N   0  0  0  0  0  0  0  0  0  0  0  0
   -0.4041   -0.5475    2.3138 N   0  0  0  0  0  0  0  0  0  0  0  0
   -0.6734   -0.7352    3.6337 C   0  0  0  0  0  0  0  0  0  0  0  0
  1  2  1  0
  2  3  1  0
  3  4  2  0
  3  5  1  0
  5  6  2  0
  6  7  1  0
  7  8  2  0
  8  9  1  0
  9 10  2  0
 10 11  1  0
 11 12  1  0
 12 13  1  0
 13 14  1  0
 14 15  1  0
 15 16  2  0
 16 17  1  0
 17 18  2  0
 18 19  1  0
 19 20  2  0
 20 21  1  0
 21 22  1  0
 12 23  2  0
  8 24  1  0
 24 25  2  0
 25  5  1  0
 23  9  1  0
 21 13  2  0
 20 15  1  0
M  END
$$$$
18
     RDKit          3D

 26 30  0  0  0  0  0  0  0  0999 V2000
   -0.2161    3.0416   -1.2745 O   0  0  0  0  0  0  0  0  0  0  0  0
   -0.1760    1.8465   -0.8756 C   0  0  0  0  0  0  0  0  0  0  0  0
    0.4619    1.5018    0.3615 N   0  0  0  0  0  0  0  0  0  0  0  0
    1.1082    2.3998    1.2736 C   0  0  0  0  0  0  0  0  0  0  0  0
    1.1842    3.7962    1.0272 C   0  0  0  0  0  0  0  0  0  0  0  0
    1.8064    4.6324    1.9128 N   0  0  0  0  0  0  0  0  0  0  0  0
    2.3505    4.1000    3.0335 C   0  0  0  0  0  0  0  0  0  0  0  0
    2.9934    4.7603    4.0040 N   0  0  0  0  0  0  0  0  0  0  0  0
    3.3552    3.8470    4.9022 N   0  0  0  0  0  0  0  0  0  0  0  0
    2.9476    2.6107    4.5109 C   0  0  0  0  0  0  0  0  0  0  0  0
    2.3009    2.7728    3.3082 C   0  0  0  0  0  0  0  0  0  0  0  0
    1.6831    1.8751    2.4472 C   0  0  0  0  0  0  0  0  0  0  0  0
   -0.7893    0.7884   -1.6844 C   0  0  0  0  0  0  0  0  0  0  0  0
   -1.4360    0.9726   -2.8932 C   0  0  0  0  0  0  0  0  0  0  0  0
   -1.8475   -0.2916   -3.2840 C   0  0  0  0  0  0  0  0  0  0  0  0
   -1.4186   -1.1459   -2.2816 C   0  0  0  0  0  0  0  0  0  0  0  0
   -1.6225   -2.6026   -2.2479 C   0  0  0  0  0  0  0  0  0  0  0  0
   -2.3106   -3.2570   -3.3012 C   0  0  0  0  0  0  0  0  0  0  0  0
   -2.5110   -4.6498   -3.2786 C   0  0  0  0  0  0  0  0  0  0  0  0
   -2.0073   -5.3465   -2.1854 C   0  0  0  0  0  0  0  0  0  0  0  0
   -2.0337   -6.6838   -1.8667 C   0  0  0  0  0  0  0  0  0  0  0  0
   -1.3903   -6.8131   -0.6785 N   0  0  0  0  0  0  0  0  0  0  0  0
   -0.9700   -5.6256   -0.2509 N   0  0  0  0  0  0  0  0  0  0  0  0
   -1.3455   -4.7260   -1.1699 C   0  0  0  0  0  0  0  0  0  0  0  0
   -1.1290   -3.3514   -1.1586 C   0  0  0  0  0  0  0  0  0  0  0  0
   -0.7933   -0.4761   -1.3452 O   0  0  0  0  0  0  0  0  0  0  0  0
  1  2  2  0
  2  3  1  0
  3  4  1  0
  4  5  2  0
  5  6  1  0
  6  7  2  0
  7  8  1  0
  8  9  1  0
  9 10  2  0
 10 11  1  0
 11 12  2  0
  2 13  1  0
 13 14  2  0
 14 15  1  0
 15 16  2  0
 16 17  1  0
 17 18  2  0
 18 19  1  0
 19 20  2  0
 20 21  1  0
 21 22  2  0
 22 23  1  0
 23 24  1  0
 24 25  2  0
 16 26  1  0
 12  4  1  0
 26 13  1  0
 11  7  1  0
 25 17  1  0
 24 20  1  0
M  END
$$$$
19
     RDKit          3D

 23 26  0  0  0  0  0  0  0  0999 V2000
   -4.4084    1.9044    2.7986 N   0  0  0  0  0  0  0  0  0  0  0  0
   -3.0939    1.4339    2.9068 N   0  0  0  0  0  0  0  0  0  0  0  0
   -2.5253    1.1226    4.1797 C   0  0  0  0  0  0  0  0  0  0  0  0
   -3.2048    1.2655    5.2305 O   0  0  0  0  0  0  0  0  0  0  0  0
   -1.1232    0.6173    4.2766 C   0  0  0  0  0  0  0  0  0  0  0  0
   -0.1353    1.6474    3.7065 C   0  0  0  0  0  0  0  0  0  0  0  0
    0.9659    0.9950    2.8776 C   0  0  0  0  0  0  0  0  0  0  0  0
    0.3641    0.1724    1.8258 N   0  0  0  0  0  0  0  0  0  0  0  0
    0.8589    0.2464    0.4747 C   0  0  0  0  0  0  0  0  0  0  0  0
    1.9288    1.1206    0.1488 C   0  0  0  0  0  0  0  0  0  0  0  0
    2.4267    1.2115   -1.1633 C   0  0  0  0  0  0  0  0  0  0  0  0
    1.8353    0.4143   -2.1383 C   0  0  0  0  0  0  0  0  0  0  0  0
    2.1739    0.3630   -3.4478 N   0  0  0  0  0  0  0  0  0  0  0  0
    1.3132   -0.5492   -3.9568 C   0  0  0  0  0  0  0  0  0  0  0  0
    1.2442   -0.9713   -5.2829 C   0  0  0  0  0  0  0  0  0  0  0  0
    0.2733   -1.9344   -5.6151 C   0  0  0  0  0  0  0  0  0  0  0  0
   -0.5977   -2.4498   -4.6300 C   0  0  0  0  0  0  0  0  0  0  0  0
   -0.5120   -2.0108   -3.2968 C   0  0  0  0  0  0  0  0  0  0  0  0
    0.4588   -1.0576   -3.0003 C   0  0  0  0  0  0  0  0  0  0  0  0
    0.7962   -0.4362   -1.8293 C   0  0  0  0  0  0  0  0  0  0  0  0
    0.2818   -0.5484   -0.5414 C   0  0  0  0  0  0  0  0  0  0  0  0
   -0.7364   -0.7410    2.1608 C   0  0  0  0  0  0  0  0  0  0  0  0
   -0.9947   -0.7872    3.6687 C   0  0  0  0  0  0  0  0  0  0  0  0
  1  2  1  0
  2  3  1  0
  3  4  2  0
  3  5  1  0
  5  6  1  0
  6  7  1  0
  7  8  1  0
  8  9  1  0
  9 10  2  0
 10 11  1  0
 11 12  2  0
 12 13  1  0
 13 14  1  0
 14 15  2  0
 15 16  1  0
 16 17  2  0
 17 18  1  0
 18 19  2  0
 19 20  1  0
 20 21  2  0
  8 22  1  0
 22 23  1  0
 23  5  1  0
 21  9  1  0
 20 12  1  0
 19 14  1  0
M  END
$$$$
20
     RDKit          3D

 28 32  0  0  0  0  0  0  0  0999 V2000
    1.0282    3.0015   -1.7941 O   0  0  0  0  0  0  0  0  0  0  0  0
    0.6052    1.9171   -1.3106 C   0  0  0  0  0  0  0  0  0  0  0  0
    1.3601    1.2345   -0.2967 N   0  0  0  0  0  0  0  0  0  0  0  0
    2.6088    1.6471    0.2750 C   0  0  0  0  0  0  0  0  0  0  0  0
    3.2586    2.8419   -0.1303 C   0  0  0  0  0  0  0  0  0  0  0  0
    4.4840    3.2311    0.4419 C   0  0  0  0  0  0  0  0  0  0  0  0
    5.0244    2.3973    1.4152 C   0  0  0  0  0  0  0  0  0  0  0  0
    6.1680    2.5581    2.0943 N   0  0  0  0  0  0  0  0  0  0  0  0
    6.2783    1.5182    2.9166 N   0  0  0  0  0  0  0  0  0  0  0  0
    5.2133    0.6893    2.7711 C   0  0  0  0  0  0  0  0  0  0  0  0
    4.4067    1.2498    1.8088 C   0  0  0  0  0  0  0  0  0  0  0  0
    3.1953    0.8343    1.2652 C   0  0  0  0  0  0  0  0  0  0  0  0
   -0.6744    1.3324   -1.7803 C   0  0  0  0  0  0  0  0  0  0  0  0
   -1.1088    0.1283   -1.2189 C   0  0  0  0  0  0  0  0  0  0  0  0
   -2.3076   -0.4491   -1.6377 C   0  0  0  0  0  0  0  0  0  0  0  0
   -2.7812   -1.7145   -1.0596 C   0  0  0  0  0  0  0  0  0  0  0  0
   -2.1169   -2.4495   -0.0711 C   0  0  0  0  0  0  0  0  0  0  0  0
   -2.9542   -3.5273    0.1199 C   0  0  0  0  0  0  0  0  0  0  0  0
   -2.8313   -4.6130    0.9835 C   0  0  0  0  0  0  0  0  0  0  0  0
   -3.8546   -5.5784    0.9648 C   0  0  0  0  0  0  0  0  0  0  0  0
   -4.9590   -5.4368    0.0960 C   0  0  0  0  0  0  0  0  0  0  0  0
   -5.0540   -4.3282   -0.7647 C   0  0  0  0  0  0  0  0  0  0  0  0
   -4.0243   -3.3911   -0.7212 C   0  0  0  0  0  0  0  0  0  0  0  0
   -3.9090   -2.2975   -1.4252 O   0  0  0  0  0  0  0  0  0  0  0  0
   -3.0417    0.1744   -2.5947 N   0  0  0  0  0  0  0  0  0  0  0  0
   -2.6423    1.3235   -3.1410 N   0  0  0  0  0  0  0  0  0  0  0  0
   -1.4833    1.9291   -2.7701 C   0  0  0  0  0  0  0  0  0  0  0  0
   -1.1173    3.1559   -3.3953 N   0  0  0  0  0  0  0  0  0  0  0  0
  1  2  2  0
  2  3  1  0
  3  4  1  0
  4  5  2  0
  5  6  1  0
  6  7  2  0
  7  8  1  0
  8  9  1  0
  9 10  2  0
 10 11  1  0
 11 12  2  0
  2 13  1  0
 13 14  2  0
 14 15  1  0
 15 16  1  0
 16 17  2  0
 17 18  1  0
 18 19  2  0
 19 20  1  0
 20 21  2  0
 21 22  1  0
 22 23  2  0
 23 24  1  0
 15 25  2  0
 25 26  1  0
 26 27  2  0
 27 28  1  0
 12  4  1  0
 27 13  1  0
 11  7  1  0
 24 16  1  0
 23 18  1  0
M  END
$$$$
21
     RDKit          3D

 28 31  0  0  0  0  0  0  0  0999 V2000
    0.1525    3.2915    8.0620 N   0  0  0  0  0  0  0  0  0  0  0  0
    0.2360    2.9020    6.7437 O   0  0  0  0  0  0  0  0  0  0  0  0
    0.7136    1.6376    6.3965 C   0  0  0  0  0  0  0  0  0  0  0  0
    1.0757    0.8321    7.2977 O   0  0  0  0  0  0  0  0  0  0  0  0
    0.7893    1.2558    5.0176 N   0  0  0  0  0  0  0  0  0  0  0  0
    1.3228   -0.0597    4.6493 C   0  0  0  0  0  0  0  0  0  0  0  0
    1.3486   -0.2457    3.1341 C   0  0  0  0  0  0  0  0  0  0  0  0
   -0.0104    0.1302    2.5398 C   0  0  0  0  0  0  0  0  0  0  0  0
   -0.0214   -0.0447    1.0515 C   0  0  0  0  0  0  0  0  0  0  0  0
    0.8126    0.7358    0.2392 C   0  0  0  0  0  0  0  0  0  0  0  0
    0.8006    0.5708   -1.1474 C   0  0  0  0  0  0  0  0  0  0  0  0
   -0.0419   -0.3746   -1.7522 C   0  0  0  0  0  0  0  0  0  0  0  0
   -0.0786   -0.5751   -3.2275 C   0  0  0  0  0  0  0  0  0  0  0  0
   -0.9294   -1.5184   -3.7289 N   0  0  0  0  0  0  0  0  0  0  0  0
   -1.0352   -1.7750   -5.0583 C   0  0  0  0  0  0  0  0  0  0  0  0
   -1.9226   -2.7519   -5.5188 C   0  0  0  0  0  0  0  0  0  0  0  0
   -2.0257   -3.0103   -6.8898 C   0  0  0  0  0  0  0  0  0  0  0  0
   -1.2425   -2.2931   -7.8013 C   0  0  0  0  0  0  0  0  0  0  0  0
   -0.3530   -1.3145   -7.3456 C   0  0  0  0  0  0  0  0  0  0  0  0
   -0.2480   -1.0544   -5.9766 C   0  0  0  0  0  0  0  0  0  0  0  0
    0.6303   -0.0854   -5.5017 C   0  0  0  0  0  0  0  0  0  0  0  0
    0.7253    0.1645   -4.1311 C   0  0  0  0  0  0  0  0  0  0  0  0
    1.6146    1.1405   -3.6976 O   0  0  0  0  0  0  0  0  0  0  0  0
   -0.8737   -1.1521   -0.9305 C   0  0  0  0  0  0  0  0  0  0  0  0
   -0.8679   -0.9932    0.4581 C   0  0  0  0  0  0  0  0  0  0  0  0
   -1.7058   -1.7817    1.2381 O   0  0  0  0  0  0  0  0  0  0  0  0
   -0.4936    1.5363    2.9382 C   0  0  0  0  0  0  0  0  0  0  0  0
    0.3985    2.2114    3.9821 C   0  0  0  0  0  0  0  0  0  0  0  0
  1  2  1  0
  2  3  1  0
  3  4  2  0
  3  5  1  0
  5  6  1  0
  6  7  1  0
  7  8  1  0
  8  9  1  0
  9 10  2  0
 10 11  1  0
 11 12  2  0
 12 13  1  0
 13 14  2  0
 14 15  1  0
 15 16  2  0
 16 17  1  0
 17 18  2  0
 18 19  1  0
 19 20  2  0
 20 21  1  0
 21 22  2  0
 22 23  1  0
 12 24  1  0
 24 25  2  0
 25 26  1  0
  8 27  1  0
 27 28  1  0
 28  5  1  0
 25  9  1  0
 22 13  1  0
 20 15  1  0
M  END
$$$$
22
     RDKit          3D

 28 32  0  0  0  0  0  0  0  0999 V2000
   -2.2171   -0.3424   -0.9640 O   0  0  0  0  0  0  0  0  0  0  0  0
   -2.4672   -0.0948    0.2471 C   0  0  0  0  0  0  0  0  0  0  0  0
   -1.4010    0.1145    1.1859 N   0  0  0  0  0  0  0  0  0  0  0  0
    0.0063    0.0769    0.9126 C   0  0  0  0  0  0  0  0  0  0  0  0
    0.9015    0.3073    1.9642 C   0  0  0  0  0  0  0  0  0  0  0  0
    2.2819    0.2794    1.7427 C   0  0  0  0  0  0  0  0  0  0  0  0
    2.7772    0.0216    0.4626 C   0  0  0  0  0  0  0  0  0  0  0  0
    4.1518   -0.0167    0.2338 C   0  0  0  0  0  0  0  0  0  0  0  0
    4.6576   -0.2672   -1.0475 C   0  0  0  0  0  0  0  0  0  0  0  0
    3.7584   -0.4920   -2.1267 C   0  0  0  0  0  0  0  0  0  0  0  0
    2.3802   -0.4720   -1.8786 C   0  0  0  0  0  0  0  0  0  0  0  0
    1.8842   -0.2116   -0.6016 C   0  0  0  0  0  0  0  0  0  0  0  0
    0.5065   -0.1838   -0.3728 C   0  0  0  0  0  0  0  0  0  0  0  0
    4.1567   -0.7911   -3.4383 O   0  0  0  0  0  0  0  0  0  0  0  0
    5.2106   -0.1429   -4.1392 C   0  0  0  0  0  0  0  0  0  0  0  0
    6.5309   -0.8449   -3.8798 C   0  0  0  0  0  0  0  0  0  0  0  0
    7.4692    0.0536   -3.0844 C   0  0  0  0  0  0  0  0  0  0  0  0
    6.7787    0.6519   -1.8668 C   0  0  0  0  0  0  0  0  0  0  0  0
    6.0419   -0.3501   -1.1849 O   0  0  0  0  0  0  0  0  0  0  0  0
   -3.8662   -0.0193    0.7032 C   0  0  0  0  0  0  0  0  0  0  0  0
   -4.1567    0.2590    2.0649 C   0  0  0  0  0  0  0  0  0  0  0  0
   -5.4865    0.3358    2.5230 C   0  0  0  0  0  0  0  0  0  0  0  0
   -6.4881    0.1270    1.5822 C   0  0  0  0  0  0  0  0  0  0  0  0
   -7.8172    0.1433    1.7482 N   0  0  0  0  0  0  0  0  0  0  0  0
   -8.2961   -0.1107    0.5544 O   0  0  0  0  0  0  0  0  0  0  0  0
   -7.3822   -0.2896   -0.3686 N   0  0  0  0  0  0  0  0  0  0  0  0
   -6.2209   -0.1389    0.2817 C   0  0  0  0  0  0  0  0  0  0  0  0
   -4.9240   -0.2236   -0.2124 C   0  0  0  0  0  0  0  0  0  0  0  0
  1  2  2  0
  2  3  1  0
  3  4  1  0
  4  5  2  0
  5  6  1  0
  6  7  2  0
  7  8  1  0
  8  9  2  0
  9 10  1  0
 10 11  2  0
 11 12  1  0
 12 13  2  0
 10 14  1  0
 14 15  1  0
 15 16  1  0
 16 17  1  0
 17 18  1  0
 18 19  1  0
  2 20  1  0
 20 21  1  0
 21 22  2  0
 22 23  1  0
 23 24  2  0
 24 25  1  0
 25 26  1  0
 26 27  2  0
 27 28  1  0
 13  4  1  0
 28 20  2  0
 12  7  1  0
 27 23  1  0
 19  9  1  0
M  END
$$$$
23
     RDKit          3D

 27 30  0  0  0  0  0  0  0  0999 V2000
   -2.0069    0.5504    1.6471 O   0  0  0  0  0  0  0  0  0  0  0  0
   -1.5428    0.0640    0.5797 C   0  0  0  0  0  0  0  0  0  0  0  0
   -0.1508    0.2026    0.2655 N   0  0  0  0  0  0  0  0  0  0  0  0
    0.8126    0.8724    1.0846 C   0  0  0  0  0  0  0  0  0  0  0  0
    0.5391    1.4634    2.2631 N   0  0  0  0  0  0  0  0  0  0  0  0
    1.6874    1.9607    2.6957 N   0  0  0  0  0  0  0  0  0  0  0  0
    2.6117    1.6520    1.7632 C   0  0  0  0  0  0  0  0  0  0  0  0
    4.0318    2.0188    1.8499 C   0  0  0  0  0  0  0  0  0  0  0  0
    4.5137    2.7375    2.9527 C   0  0  0  0  0  0  0  0  0  0  0  0
    5.8658    3.0844    3.0310 C   0  0  0  0  0  0  0  0  0  0  0  0
    6.7426    2.7145    2.0073 C   0  0  0  0  0  0  0  0  0  0  0  0
    8.0525    3.0506    2.0832 F   0  0  0  0  0  0  0  0  0  0  0  0
    6.2678    1.9978    0.9052 C   0  0  0  0  0  0  0  0  0  0  0  0
    4.9157    1.6508    0.8268 C   0  0  0  0  0  0  0  0  0  0  0  0
    2.0787    0.9816    0.7685 O   0  0  0  0  0  0  0  0  0  0  0  0
   -2.4358   -0.6509   -0.3491 C   0  0  0  0  0  0  0  0  0  0  0  0
   -3.7957   -0.7909   -0.0597 C   0  0  0  0  0  0  0  0  0  0  0  0
   -4.6360   -1.4675   -0.9438 C   0  0  0  0  0  0  0  0  0  0  0  0
   -4.1455   -2.0205   -2.1326 C   0  0  0  0  0  0  0  0  0  0  0  0
   -2.7652   -1.8786   -2.4304 C   0  0  0  0  0  0  0  0  0  0  0  0
   -1.9348   -1.1908   -1.5381 C   0  0  0  0  0  0  0  0  0  0  0  0
   -2.1239   -2.3376   -3.6931 C   0  0  0  0  0  0  0  0  0  0  0  0
   -2.5022   -3.7578   -4.0222 C   0  0  0  0  0  0  0  0  0  0  0  0
   -3.7193   -3.6997   -4.9071 C   0  0  0  0  0  0  0  0  0  0  0  0
   -4.9813   -3.5282   -4.1302 C   0  0  0  0  0  0  0  0  0  0  0  0
   -6.0154   -4.0910   -4.5730 O   0  0  0  0  0  0  0  0  0  0  0  0
   -5.1020   -2.7180   -2.9507 N   0  0  0  0  0  0  0  0  0  0  0  0
  1  2  2  0
  2  3  1  0
  3  4  1  0
  4  5  2  0
  5  6  1  0
  6  7  2  0
  7  8  1  0
  8  9  2  0
  9 10  1  0
 10 11  2  0
 11 12  1  0
 11 13  1  0
 13 14  2  0
  7 15  1  0
  2 16  1  0
 16 17  2  0
 17 18  1  0
 18 19  2  0
 19 20  1  0
 20 21  2  0
 20 22  1  0
 22 23  1  0
 23 24  1  0
 24 25  1  0
 25 26  2  0
 25 27  1  0
 15  4  1  0
 21 16  1  0
 14  8  1  0
 27 19  1  0
M  END
$$$$
24
     RDKit          3D

 28 32  0  0  0  0  0  0  0  0999 V2000
   -3.0139    1.1189    0.3154 O   0  0  0  0  0  0  0  0  0  0  0  0
   -3.0987   -0.1132    0.5725 C   0  0  0  0  0  0  0  0  0  0  0  0
   -2.4239   -0.6544    1.7132 N   0  0  0  0  0  0  0  0  0  0  0  0
   -1.5688    0.1452    2.5801 C   0  0  0  0  0  0  0  0  0  0  0  0
   -0.2537    0.3968    1.9238 C   0  0  0  0  0  0  0  0  0  0  0  0
    0.0126    1.6417    1.3475 C   0  0  0  0  0  0  0  0  0  0  0  0
    1.2386    1.8741    0.7184 C   0  0  0  0  0  0  0  0  0  0  0  0
    2.2133    0.8641    0.6556 C   0  0  0  0  0  0  0  0  0  0  0  0
    3.5135    1.1104   -0.0122 C   0  0  0  0  0  0  0  0  0  0  0  0
    4.4958    0.0833   -0.0727 C   0  0  0  0  0  0  0  0  0  0  0  0
    5.7374    0.2960   -0.7024 C   0  0  0  0  0  0  0  0  0  0  0  0
    5.9530    1.5511   -1.2579 C   0  0  0  0  0  0  0  0  0  0  0  0
    7.0309    2.0121   -1.9059 N   0  0  0  0  0  0  0  0  0  0  0  0
    6.7175    3.2463   -2.2186 O   0  0  0  0  0  0  0  0  0  0  0  0
    5.5237    3.6180   -1.8241 N   0  0  0  0  0  0  0  0  0  0  0  0
    5.0275    2.5373   -1.2077 C   0  0  0  0  0  0  0  0  0  0  0  0
    3.7902    2.3700   -0.5965 C   0  0  0  0  0  0  0  0  0  0  0  0
    1.9330   -0.3842    1.2362 C   0  0  0  0  0  0  0  0  0  0  0  0
    0.7070   -0.6171    1.8654 C   0  0  0  0  0  0  0  0  0  0  0  0
   -3.8960   -0.9938   -0.2984 C   0  0  0  0  0  0  0  0  0  0  0  0
   -4.5690   -0.4608   -1.4267 C   0  0  0  0  0  0  0  0  0  0  0  0
   -5.3333   -1.2881   -2.2701 C   0  0  0  0  0  0  0  0  0  0  0  0
   -5.3977   -2.6406   -1.9495 C   0  0  0  0  0  0  0  0  0  0  0  0
   -6.0577   -3.6070   -2.6012 N   0  0  0  0  0  0  0  0  0  0  0  0
   -5.7811   -4.7169   -1.8658 C   0  0  0  0  0  0  0  0  0  0  0  0
   -4.9816   -4.4776   -0.7922 N   0  0  0  0  0  0  0  0  0  0  0  0
   -4.7563   -3.1596   -0.8712 C   0  0  0  0  0  0  0  0  0  0  0  0
   -3.9914   -2.3733   -0.0144 C   0  0  0  0  0  0  0  0  0  0  0  0
  1  2  2  0
  2  3  1  0
  3  4  1  0
  4  5  1  0
  5  6  2  0
  6  7  1  0
  7  8  2  0
  8  9  1  0
  9 10  1  0
 10 11  2  0
 11 12  1  0
 12 13  2  0
 13 14  1  0
 14 15  1  0
 15 16  2  0
 16 17  1  0
  8 18  1  0
 18 19  2  0
  2 20  1  0
 20 21  2  0
 21 22  1  0
 22 23  2  0
 23 24  1  0
 24 25  1  0
 25 26  2  0
 26 27  1  0
 27 28  2  0
 19  5  1  0
 28 20  1  0
 17  9  2  0
 27 23  1  0
 16 12  1  0
M  END
$$$$
25
     RDKit          3D

 27 31  0  0  0  0  0  0  0  0999 V2000
   -2.4654    2.7656   -0.6783 O   0  0  0  0  0  0  0  0  0  0  0  0
   -1.6285    1.8613   -0.4099 C   0  0  0  0  0  0  0  0  0  0  0  0
   -0.3877    2.1895    0.2157 N   0  0  0  0  0  0  0  0  0  0  0  0
   -0.0368    3.5573    0.5620 C   0  0  0  0  0  0  0  0  0  0  0  0
    1.3153    3.5852    1.1859 C   0  0  0  0  0  0  0  0  0  0  0  0
    1.4636    3.5090    2.5828 C   0  0  0  0  0  0  0  0  0  0  0  0
    2.7500    3.5088    3.1651 C   0  0  0  0  0  0  0  0  0  0  0  0
    3.9006    3.5781    2.3577 C   0  0  0  0  0  0  0  0  0  0  0  0
    3.7175    3.6447    0.9783 C   0  0  0  0  0  0  0  0  0  0  0  0
    4.6443    3.7123   -0.0372 C   0  0  0  0  0  0  0  0  0  0  0  0
    3.8628    3.7508   -1.1958 C   0  0  0  0  0  0  0  0  0  0  0  0
    2.5777    3.7092   -0.8881 O   0  0  0  0  0  0  0  0  0  0  0  0
    2.4759    3.6458    0.4127 C   0  0  0  0  0  0  0  0  0  0  0  0
   -1.9248    0.4640   -0.7401 C   0  0  0  0  0  0  0  0  0  0  0  0
   -3.0843    0.0085   -1.3444 C   0  0  0  0  0  0  0  0  0  0  0  0
   -2.9263   -1.3638   -1.4592 C   0  0  0  0  0  0  0  0  0  0  0  0
   -1.6822   -1.6285   -0.9144 C   0  0  0  0  0  0  0  0  0  0  0  0
   -1.0744   -2.9217   -0.8084 N   0  0  0  0  0  0  0  0  0  0  0  0
    0.1255   -3.1390   -0.2779 N   0  0  0  0  0  0  0  0  0  0  0  0
    0.4376   -4.4343   -0.3104 N   0  0  0  0  0  0  0  0  0  0  0  0
   -0.6124   -5.0475   -0.8852 C   0  0  0  0  0  0  0  0  0  0  0  0
   -0.7883   -6.4012   -1.1537 C   0  0  0  0  0  0  0  0  0  0  0  0
   -1.9971   -6.7796   -1.7704 C   0  0  0  0  0  0  0  0  0  0  0  0
   -2.9764   -5.8109   -2.0945 C   0  0  0  0  0  0  0  0  0  0  0  0
   -2.7618   -4.4490   -1.8068 C   0  0  0  0  0  0  0  0  0  0  0  0
   -1.5538   -4.1150   -1.1966 C   0  0  0  0  0  0  0  0  0  0  0  0
   -1.1083   -0.5298   -0.4952 O   0  0  0  0  0  0  0  0  0  0  0  0
  1  2  2  0
  2  3  1  0
  3  4  1  0
  4  5  1  0
  5  6  2  0
  6  7  1  0
  7  8  2  0
  8  9  1  0
  9 10  1  0
 10 11  2  0
 11 12  1  0
 12 13  1  0
  2 14  1  0
 14 15  2  0
 15 16  1  0
 16 17  2  0
 17 18  1  0
 18 19  1  0
 19 20  2  0
 20 21  1  0
 21 22  2  0
 22 23  1  0
 23 24  2  0
 24 25  1  0
 25 26  2  0
 17 27  1  0
 13  5  1  0
 27 14  1  0
 13  9  2  0
 26 18  1  0
 26 21  1  0
M  END
$$$$
26
     RDKit          3D

 29 32  0  0  0  0  0  0  0  0999 V2000
    3.9521    4.7139    7.2990 N   0  0  0  0  0  0  0  0  0  0  0  0
    3.1661    4.0686    6.3361 N   0  0  0  0  0  0  0  0  0  0  0  0
    3.7635    3.3696    5.2461 C   0  0  0  0  0  0  0  0  0  0  0  0
    5.0188    3.3266    5.1395 O   0  0  0  0  0  0  0  0  0  0  0  0
    2.9182    2.7244    4.2852 N   0  0  0  0  0  0  0  0  0  0  0  0
    3.3382    1.9809    3.1328 C   0  0  0  0  0  0  0  0  0  0  0  0
    4.6931    1.8029    2.8163 C   0  0  0  0  0  0  0  0  0  0  0  0
    5.0632    1.0722    1.6849 C   0  0  0  0  0  0  0  0  0  0  0  0
    4.0811    0.5148    0.8630 C   0  0  0  0  0  0  0  0  0  0  0  0
    2.7225    0.6847    1.1672 C   0  0  0  0  0  0  0  0  0  0  0  0
    1.6849    0.1282    0.3485 N   0  0  0  0  0  0  0  0  0  0  0  0
    1.8539   -0.6483   -0.8465 C   0  0  0  0  0  0  0  0  0  0  0  0
    3.0062   -0.9114   -1.2867 O   0  0  0  0  0  0  0  0  0  0  0  0
    0.6661   -1.1402   -1.5614 C   0  0  0  0  0  0  0  0  0  0  0  0
    0.8035   -1.9012   -2.7314 C   0  0  0  0  0  0  0  0  0  0  0  0
   -0.3351   -2.3596   -3.3966 C   0  0  0  0  0  0  0  0  0  0  0  0
   -1.5986   -2.0565   -2.8915 C   0  0  0  0  0  0  0  0  0  0  0  0
   -2.7520   -2.5041   -3.5396 C   0  0  0  0  0  0  0  0  0  0  0  0
   -4.0185   -2.1932   -3.0224 C   0  0  0  0  0  0  0  0  0  0  0  0
   -5.2014   -2.6538   -3.6896 N   0  0  0  0  0  0  0  0  0  0  0  0
   -6.4807   -2.4453   -3.3287 C   0  0  0  0  0  0  0  0  0  0  0  0
   -7.2836   -3.0492   -4.2278 N   0  0  0  0  0  0  0  0  0  0  0  0
   -6.4791   -3.6134   -5.1180 N   0  0  0  0  0  0  0  0  0  0  0  0
   -5.2189   -3.3759   -4.7952 N   0  0  0  0  0  0  0  0  0  0  0  0
   -4.1148   -1.4286   -1.8481 C   0  0  0  0  0  0  0  0  0  0  0  0
   -2.9626   -0.9785   -1.1960 C   0  0  0  0  0  0  0  0  0  0  0  0
   -1.7031   -1.2892   -1.7128 C   0  0  0  0  0  0  0  0  0  0  0  0
   -0.5784   -0.8551   -1.0843 N   0  0  0  0  0  0  0  0  0  0  0  0
    2.3624    1.4184    2.3028 C   0  0  0  0  0  0  0  0  0  0  0  0
  1  2  1  0
  2  3  1  0
  3  4  2  0
  3  5  1  0
  5  6  1  0
  6  7  2  0
  7  8  1  0
  8  9  2  0
  9 10  1  0
 10 11  1  0
 11 12  1  0
 12 13  2  0
 12 14  1  0
 14 15  2  0
 15 16  1  0
 16 17  2  0
 17 18  1  0
 18 19  2  0
 19 20  1  0
 20 21  1  0
 21 22  2  0
 22 23  1  0
 23 24  2  0
 19 25  1  0
 25 26  2  0
 26 27  1  0
 27 28  2  0
 10 29  2  0
 29  6  1  0
 28 14  1  0
 27 17  1  0
 24 20  1  0
M  END
$$$$
27
     RDKit          3D

 27 31  0  0  0  0  0  0  0  0999 V2000
   -3.0213    1.0455   -0.7119 O   0  0  0  0  0  0  0  0  0  0  0  0
   -2.7150    0.5178    0.3913 C   0  0  0  0  0  0  0  0  0  0  0  0
   -1.9097    1.3141    1.3678 C   0  0  0  0  0  0  0  0  0  0  0  0
   -0.4547    1.0986    1.1294 C   0  0  0  0  0  0  0  0  0  0  0  0
    0.2677    0.1494    1.7499 N   0  0  0  0  0  0  0  0  0  0  0  0
    1.4907    0.2263    1.2557 N   0  0  0  0  0  0  0  0  0  0  0  0
    1.4768    1.2161    0.3422 C   0  0  0  0  0  0  0  0  0  0  0  0
    2.6520    1.6182   -0.4460 C   0  0  0  0  0  0  0  0  0  0  0  0
    3.8910    0.9558   -0.2624 C   0  0  0  0  0  0  0  0  0  0  0  0
    5.0252    1.3270   -1.0080 C   0  0  0  0  0  0  0  0  0  0  0  0
    4.8753    2.3637   -1.9243 C   0  0  0  0  0  0  0  0  0  0  0  0
    5.8067    2.8815   -2.7358 N   0  0  0  0  0  0  0  0  0  0  0  0
    5.1268    3.8515   -3.4035 C   0  0  0  0  0  0  0  0  0  0  0  0
    3.8204    3.9541   -3.0401 N   0  0  0  0  0  0  0  0  0  0  0  0
    3.6913    3.0031   -2.1057 C   0  0  0  0  0  0  0  0  0  0  0  0
    2.5480    2.6644   -1.3873 C   0  0  0  0  0  0  0  0  0  0  0  0
    0.2629    1.7925    0.2255 N   0  0  0  0  0  0  0  0  0  0  0  0
   -3.1042   -0.8355    0.6782 N   0  0  0  0  0  0  0  0  0  0  0  0
   -2.7973   -1.4130    1.9990 C   0  0  0  0  0  0  0  0  0  0  0  0
   -3.4366   -2.7887    2.2168 C   0  0  0  0  0  0  0  0  0  0  0  0
   -3.3053   -3.6321    0.9915 C   0  0  0  0  0  0  0  0  0  0  0  0
   -3.0323   -4.9994    1.0914 C   0  0  0  0  0  0  0  0  0  0  0  0
   -2.9526   -5.7796   -0.0671 C   0  0  0  0  0  0  0  0  0  0  0  0
   -3.1562   -5.1948   -1.3220 C   0  0  0  0  0  0  0  0  0  0  0  0
   -3.4398   -3.8285   -1.4212 C   0  0  0  0  0  0  0  0  0  0  0  0
   -3.5099   -3.0472   -0.2644 C   0  0  0  0  0  0  0  0  0  0  0  0
   -3.8380   -1.5910   -0.3454 C   0  0  0  0  0  0  0  0  0  0  0  0
  1  2  2  0
  2  3  1  0
  3  4  1  0
  4  5  2  0
  5  6  1  0
  6  7  1  0
  7  8  1  0
  8  9  2  0
  9 10  1  0
 10 11  2  0
 11 12  1  0
 12 13  2  0
 13 14  1  0
 14 15  1  0
 15 16  2  0
  7 17  2  0
  2 18  1  0
 18 19  1  0
 19 20  1  0
 20 21  1  0
 21 22  2  0
 22 23  1  0
 23 24  2  0
 24 25  1  0
 25 26  2  0
 26 27  1  0
 17  4  1  0
 27 18  1  0
 16  8  1  0
 26 21  1  0
 15 11  1  0
M  END
$$$$
28
     RDKit          3D

 26 29  0  0  0  0  0  0  0  0999 V2000
   -2.8014   -0.8563    7.1285 N   0  0  0  0  0  0  0  0  0  0  0  0
   -1.9740   -0.6362    6.0202 N   0  0  0  0  0  0  0  0  0  0  0  0
   -0.6184   -0.2190    6.1842 C   0  0  0  0  0  0  0  0  0  0  0  0
   -0.1469   -0.0425    7.3397 O   0  0  0  0  0  0  0  0  0  0  0  0
    0.2291    0.0053    5.0078 C   0  0  0  0  0  0  0  0  0  0  0  0
   -0.1677   -0.1530    3.6923 C   0  0  0  0  0  0  0  0  0  0  0  0
    0.9824    0.1771    2.9943 C   0  0  0  0  0  0  0  0  0  0  0  0
    1.1252    0.1787    1.5288 C   0  0  0  0  0  0  0  0  0  0  0  0
    2.3611    0.5378    0.9339 C   0  0  0  0  0  0  0  0  0  0  0  0
    2.5084    0.5438   -0.4256 N   0  0  0  0  0  0  0  0  0  0  0  0
    1.4482    0.1992   -1.1962 C   0  0  0  0  0  0  0  0  0  0  0  0
    1.4156    0.1512   -2.5335 N   0  0  0  0  0  0  0  0  0  0  0  0
    0.1342   -0.2456   -2.7751 C   0  0  0  0  0  0  0  0  0  0  0  0
   -0.3899   -0.4441   -4.1439 C   0  0  0  0  0  0  0  0  0  0  0  0
    0.4599   -0.2167   -5.2372 C   0  0  0  0  0  0  0  0  0  0  0  0
    0.0025   -0.3933   -6.5451 C   0  0  0  0  0  0  0  0  0  0  0  0
   -1.3126   -0.8000   -6.7748 C   0  0  0  0  0  0  0  0  0  0  0  0
   -1.7571   -0.9714   -8.0427 F   0  0  0  0  0  0  0  0  0  0  0  0
   -2.1699   -1.0300   -5.6971 C   0  0  0  0  0  0  0  0  0  0  0  0
   -1.7181   -0.8551   -4.3851 C   0  0  0  0  0  0  0  0  0  0  0  0
   -2.5811   -1.0887   -3.3654 F   0  0  0  0  0  0  0  0  0  0  0  0
   -0.6137   -0.4412   -1.6525 N   0  0  0  0  0  0  0  0  0  0  0  0
    0.2505   -0.1502   -0.6716 C   0  0  0  0  0  0  0  0  0  0  0  0
    0.0384   -0.1756    0.7012 C   0  0  0  0  0  0  0  0  0  0  0  0
    1.9759    0.5036    3.8431 N   0  0  0  0  0  0  0  0  0  0  0  0
    1.5142    0.3983    5.0767 N   0  0  0  0  0  0  0  0  0  0  0  0
  1  2  1  0
  2  3  1  0
  3  4  2  0
  3  5  1  0
  5  6  2  0
  6  7  1  0
  7  8  1  0
  8  9  2  0
  9 10  1  0
 10 11  2  0
 11 12  1  0
 12 13  2  0
 13 14  1  0
 14 15  2  0
 15 16  1  0
 16 17  2  0
 17 18  1  0
 17 19  1  0
 19 20  2  0
 20 21  1  0
 13 22  1  0
 22 23  1  0
 23 24  2  0
  7 25  2  0
 25 26  1  0
 26  5  1  0
 24  8  1  0
 23 11  1  0
 20 14  1  0
M  END
$$$$
29
     RDKit          3D

 25 28  0  0  0  0  0  0  0  0999 V2000
    0.4603   -0.8650   -0.8467 O   0  0  0  0  0  0  0  0  0  0  0  0
   -0.7048   -0.9562   -0.3716 C   0  0  0  0  0  0  0  0  0  0  0  0
   -1.2085    0.0583    0.5062 N   0  0  0  0  0  0  0  0  0  0  0  0
   -0.4712    1.2156    0.9073 C   0  0  0  0  0  0  0  0  0  0  0  0
   -0.9625    2.1564    1.7326 N   0  0  0  0  0  0  0  0  0  0  0  0
   -0.0023    3.0582    1.8685 N   0  0  0  0  0  0  0  0  0  0  0  0
    1.0339    2.6280    1.1197 C   0  0  0  0  0  0  0  0  0  0  0  0
    2.3132    3.3381    0.9873 C   0  0  0  0  0  0  0  0  0  0  0  0
    3.3305    2.8074    0.1830 C   0  0  0  0  0  0  0  0  0  0  0  0
    4.5495    3.4797    0.0541 C   0  0  0  0  0  0  0  0  0  0  0  0
    4.7571    4.6861    0.7289 C   0  0  0  0  0  0  0  0  0  0  0  0
    5.9381    5.3373    0.6039 F   0  0  0  0  0  0  0  0  0  0  0  0
    3.7461    5.2204    1.5326 C   0  0  0  0  0  0  0  0  0  0  0  0
    2.5270    4.5482    1.6617 C   0  0  0  0  0  0  0  0  0  0  0  0
    0.7516    1.4930    0.5246 O   0  0  0  0  0  0  0  0  0  0  0  0
   -1.5512   -2.1105   -0.7209 C   0  0  0  0  0  0  0  0  0  0  0  0
   -2.8616   -2.2178   -0.1896 C   0  0  0  0  0  0  0  0  0  0  0  0
   -3.6867   -3.3116   -0.5099 C   0  0  0  0  0  0  0  0  0  0  0  0
   -3.1606   -4.2739   -1.3649 C   0  0  0  0  0  0  0  0  0  0  0  0
   -3.7188   -5.3678   -1.8074 O   0  0  0  0  0  0  0  0  0  0  0  0
   -2.8092   -5.9312   -2.5832 C   0  0  0  0  0  0  0  0  0  0  0  0
   -3.0033   -7.0178   -3.1878 O   0  0  0  0  0  0  0  0  0  0  0  0
   -1.6451   -5.2375   -2.6734 N   0  0  0  0  0  0  0  0  0  0  0  0
   -1.9028   -4.1821   -1.8819 C   0  0  0  0  0  0  0  0  0  0  0  0
   -1.0610   -3.1141   -1.5857 C   0  0  0  0  0  0  0  0  0  0  0  0
  1  2  2  0
  2  3  1  0
  3  4  1  0
  4  5  2  0
  5  6  1  0
  6  7  2  0
  7  8  1  0
  8  9  2  0
  9 10  1  0
 10 11  2  0
 11 12  1  0
 11 13  1  0
 13 14  2  0
  7 15  1  0
  2 16  1  0
 16 17  2  0
 17 18  1  0
 18 19  2  0
 19 20  1  0
 20 21  1  0
 21 22  2  0
 21 23  1  0
 23 24  1  0
 24 25  2  0
 15  4  1  0
 25 16  1  0
 14  8  1  0
 24 19  1  0
M  END
$$$$
30
     RDKit          3D

 25 28  0  0  0  0  0  0  0  0999 V2000
    0.3134   -1.4225    0.3358 O   0  0  0  0  0  0  0  0  0  0  0  0
   -0.9066   -1.4597    0.0168 C   0  0  0  0  0  0  0  0  0  0  0  0
   -1.5309   -0.3193   -0.5858 N   0  0  0  0  0  0  0  0  0  0  0  0
   -0.8599    0.9110   -0.8688 C   0  0  0  0  0  0  0  0  0  0  0  0
   -1.4643    1.9700   -1.4351 N   0  0  0  0  0  0  0  0  0  0  0  0
   -0.5349    2.9078   -1.5367 N   0  0  0  0  0  0  0  0  0  0  0  0
    0.5971    2.3798   -1.0276 C   0  0  0  0  0  0  0  0  0  0  0  0
    1.8805    3.0899   -0.9463 C   0  0  0  0  0  0  0  0  0  0  0  0
    3.0017    2.4525   -0.3987 C   0  0  0  0  0  0  0  0  0  0  0  0
    4.2252    3.1244   -0.3193 C   0  0  0  0  0  0  0  0  0  0  0  0
    5.3056    2.5032    0.2110 F   0  0  0  0  0  0  0  0  0  0  0  0
    4.3335    4.4371   -0.7872 C   0  0  0  0  0  0  0  0  0  0  0  0
    3.2184    5.0780   -1.3344 C   0  0  0  0  0  0  0  0  0  0  0  0
    3.3232    6.3500   -1.7878 F   0  0  0  0  0  0  0  0  0  0  0  0
    1.9949    4.4063   -1.4139 C   0  0  0  0  0  0  0  0  0  0  0  0
    0.4038    1.1494   -0.6142 O   0  0  0  0  0  0  0  0  0  0  0  0
   -1.6928   -2.6808    0.2650 C   0  0  0  0  0  0  0  0  0  0  0  0
   -3.0662   -2.7275   -0.0922 C   0  0  0  0  0  0  0  0  0  0  0  0
   -3.8372   -3.8840    0.1355 C   0  0  0  0  0  0  0  0  0  0  0  0
   -3.1905   -4.9656    0.7220 C   0  0  0  0  0  0  0  0  0  0  0  0
   -3.6845   -6.1691    1.0431 N   0  0  0  0  0  0  0  0  0  0  0  0
   -2.6629   -6.8385    1.5757 N   0  0  0  0  0  0  0  0  0  0  0  0
   -1.5468   -6.1114    1.6049 N   0  0  0  0  0  0  0  0  0  0  0  0
   -1.8793   -4.9302    1.0666 C   0  0  0  0  0  0  0  0  0  0  0  0
   -1.0831   -3.8093    0.8591 C   0  0  0  0  0  0  0  0  0  0  0  0
  1  2  2  0
  2  3  1  0
  3  4  1  0
  4  5  2  0
  5  6  1  0
  6  7  2  0
  7  8  1  0
  8  9  2  0
  9 10  1  0
 10 11  1  0
 10 12  2  0
 12 13  1  0
 13 14  1  0
 13 15  2  0
  7 16  1  0
  2 17  1  0
 17 18  2  0
 18 19  1  0
 19 20  2  0
 20 21  1  0
 21 22  1  0
 22 23  2  0
 23 24  1  0
 24 25  2  0
 16  4  1  0
 25 17  1  0
 15  8  1  0
 24 20  1  0
M  END
$$$$
31
     RDKit          3D

 27 30  0  0  0  0  0  0  0  0999 V2000
   -1.0314    2.6340    6.4699 N   0  0  0  0  0  0  0  0  0  0  0  0
   -0.3078    2.5701    5.2726 N   0  0  0  0  0  0  0  0  0  0  0  0
   -0.1018    1.3260    4.6007 C   0  0  0  0  0  0  0  0  0  0  0  0
   -0.5773    0.2646    5.0888 O   0  0  0  0  0  0  0  0  0  0  0  0
    0.6626    1.2825    3.3417 C   0  0  0  0  0  0  0  0  0  0  0  0
    1.1988    2.4567    2.7976 C   0  0  0  0  0  0  0  0  0  0  0  0
    1.9205    2.4164    1.6022 C   0  0  0  0  0  0  0  0  0  0  0  0
    2.1092    1.2060    0.9281 C   0  0  0  0  0  0  0  0  0  0  0  0
    2.8450    1.2126   -0.2646 O   0  0  0  0  0  0  0  0  0  0  0  0
    2.5021    0.5029   -1.4231 C   0  0  0  0  0  0  0  0  0  0  0  0
    3.4720    0.3140   -2.4114 C   0  0  0  0  0  0  0  0  0  0  0  0
    3.1567   -0.3698   -3.5877 C   0  0  0  0  0  0  0  0  0  0  0  0
    1.8648   -0.8640   -3.7847 C   0  0  0  0  0  0  0  0  0  0  0  0
    0.8724   -0.6772   -2.8093 C   0  0  0  0  0  0  0  0  0  0  0  0
   -0.4992   -1.1993   -3.0156 C   0  0  0  0  0  0  0  0  0  0  0  0
   -0.8321   -1.8911   -4.2108 C   0  0  0  0  0  0  0  0  0  0  0  0
   -2.1283   -2.3953   -4.4243 C   0  0  0  0  0  0  0  0  0  0  0  0
   -3.0644   -2.1876   -3.4180 C   0  0  0  0  0  0  0  0  0  0  0  0
   -4.3882   -2.5459   -3.3174 C   0  0  0  0  0  0  0  0  0  0  0  0
   -4.8244   -2.0884   -2.1162 N   0  0  0  0  0  0  0  0  0  0  0  0
   -3.8380   -1.4682   -1.4743 N   0  0  0  0  0  0  0  0  0  0  0  0
   -2.7602   -1.5271   -2.2678 C   0  0  0  0  0  0  0  0  0  0  0  0
   -1.4901   -1.0153   -2.0227 C   0  0  0  0  0  0  0  0  0  0  0  0
    1.2029    0.0139   -1.6330 C   0  0  0  0  0  0  0  0  0  0  0  0
    1.5938    0.0190    1.4847 C   0  0  0  0  0  0  0  0  0  0  0  0
    1.8308   -1.1841    0.9066 F   0  0  0  0  0  0  0  0  0  0  0  0
    0.8733    0.0644    2.6816 C   0  0  0  0  0  0  0  0  0  0  0  0
  1  2  1  0
  2  3  1  0
  3  4  2  0
  3  5  1  0
  5  6  2  0
  6  7  1  0
  7  8  2  0
  8  9  1  0
  9 10  1  0
 10 11  2  0
 11 12  1  0
 12 13  2  0
 13 14  1  0
 14 15  1  0
 15 16  2  0
 16 17  1  0
 17 18  2  0
 18 19  1  0
 19 20  2  0
 20 21  1  0
 21 22  1  0
 22 23  2  0
 14 24  2  0
  8 25  1  0
 25 26  1  0
 25 27  2  0
 27  5  1  0
 24 10  1  0
 23 15  1  0
 22 18  1  0
M  END
$$$$
32
     RDKit          3D

 29 32  0  0  0  0  0  0  0  0999 V2000
    0.2470    4.6608    3.1157 C   0  0  0  0  0  0  0  0  0  0  0  0
    1.6533    5.2160    2.9801 C   0  0  0  0  0  0  0  0  0  0  0  0
    2.5887    4.4241    3.7681 N   0  0  0  0  0  0  0  0  0  0  0  0
    3.1640    5.0400    4.9528 C   0  0  0  0  0  0  0  0  0  0  0  0
    2.9060    3.0574    3.4441 C   0  0  0  0  0  0  0  0  0  0  0  0
    3.3443    2.2952    4.3494 O   0  0  0  0  0  0  0  0  0  0  0  0
    2.7256    2.5392    2.1152 N   0  0  0  0  0  0  0  0  0  0  0  0
    2.8774    3.4170    0.9496 C   0  0  0  0  0  0  0  0  0  0  0  0
    2.8440    2.6256   -0.3568 C   0  0  0  0  0  0  0  0  0  0  0  0
    1.7430    1.6613   -0.3341 N   0  0  0  0  0  0  0  0  0  0  0  0
    0.8288    1.6220   -1.4464 C   0  0  0  0  0  0  0  0  0  0  0  0
    0.7707    2.6116   -2.2278 O   0  0  0  0  0  0  0  0  0  0  0  0
   -0.0420    0.4536   -1.7141 C   0  0  0  0  0  0  0  0  0  0  0  0
   -1.1004    0.5663   -2.6284 C   0  0  0  0  0  0  0  0  0  0  0  0
   -1.9083   -0.5401   -2.8969 C   0  0  0  0  0  0  0  0  0  0  0  0
   -1.6533   -1.7517   -2.2574 C   0  0  0  0  0  0  0  0  0  0  0  0
   -2.4477   -2.8725   -2.5089 C   0  0  0  0  0  0  0  0  0  0  0  0
   -2.1801   -4.0884   -1.8614 C   0  0  0  0  0  0  0  0  0  0  0  0
   -2.9981   -5.2383   -2.1214 N   0  0  0  0  0  0  0  0  0  0  0  0
   -2.8611   -6.4620   -1.5778 C   0  0  0  0  0  0  0  0  0  0  0  0
   -3.8690   -7.2379   -2.1244 C   0  0  0  0  0  0  0  0  0  0  0  0
   -4.5713   -6.4570   -2.9720 N   0  0  0  0  0  0  0  0  0  0  0  0
   -4.0248   -5.2535   -2.9521 N   0  0  0  0  0  0  0  0  0  0  0  0
   -1.1056   -4.1658   -0.9595 C   0  0  0  0  0  0  0  0  0  0  0  0
   -0.3077   -3.0461   -0.7052 C   0  0  0  0  0  0  0  0  0  0  0  0
   -0.5774   -1.8376   -1.3506 C   0  0  0  0  0  0  0  0  0  0  0  0
    0.1938   -0.7447   -1.1085 N   0  0  0  0  0  0  0  0  0  0  0  0
    1.5424    0.8122    0.8467 C   0  0  0  0  0  0  0  0  0  0  0  0
    2.5847    1.0954    1.9267 C   0  0  0  0  0  0  0  0  0  0  0  0
  1  2  1  0
  2  3  1  0
  3  4  1  0
  3  5  1  0
  5  6  2  0
  5  7  1  0
  7  8  1  0
  8  9  1  0
  9 10  1  0
 10 11  1  0
 11 12  2  0
 11 13  1  0
 13 14  2  0
 14 15  1  0
 15 16  2  0
 16 17  1  0
 17 18  2  0
 18 19  1  0
 19 20  1  0
 20 21  2  0
 21 22  1  0
 22 23  2  0
 18 24  1  0
 24 25  2  0
 25 26  1  0
 26 27  2  0
 10 28  1  0
 28 29  1  0
 29  7  1  0
 27 13  1  0
 26 16  1  0
 23 19  1  0
M  END
$$$$
33
     RDKit          3D

 26 30  0  0  0  0  0  0  0  0999 V2000
   -0.7319   -0.8735   -1.7195 O   0  0  0  0  0  0  0  0  0  0  0  0
   -1.5733   -1.2742   -0.8695 C   0  0  0  0  0  0  0  0  0  0  0  0
   -1.4031   -0.9688    0.5219 N   0  0  0  0  0  0  0  0  0  0  0  0
   -0.3230   -0.2167    1.0866 C   0  0  0  0  0  0  0  0  0  0  0  0
    0.7350    0.3407    0.3906 C   0  0  0  0  0  0  0  0  0  0  0  0
    1.4650    0.9398    1.4044 C   0  0  0  0  0  0  0  0  0  0  0  0
    2.7179    1.6928    1.2278 C   0  0  0  0  0  0  0  0  0  0  0  0
    3.3719    2.2602    2.3498 C   0  0  0  0  0  0  0  0  0  0  0  0
    4.5359    2.9619    2.2010 N   0  0  0  0  0  0  0  0  0  0  0  0
    5.0566    3.1070    0.9581 C   0  0  0  0  0  0  0  0  0  0  0  0
    6.2016    3.7631    0.5730 C   0  0  0  0  0  0  0  0  0  0  0  0
    6.2183    3.5742   -0.8149 C   0  0  0  0  0  0  0  0  0  0  0  0
    5.1688    2.8663   -1.2044 O   0  0  0  0  0  0  0  0  0  0  0  0
    4.4647    2.5811   -0.1437 C   0  0  0  0  0  0  0  0  0  0  0  0
    3.2810    1.8584   -0.0552 C   0  0  0  0  0  0  0  0  0  0  0  0
    0.8724    0.7431    2.5987 N   0  0  0  0  0  0  0  0  0  0  0  0
   -0.2249    0.0332    2.4030 N   0  0  0  0  0  0  0  0  0  0  0  0
   -2.7388   -2.0614   -1.3088 C   0  0  0  0  0  0  0  0  0  0  0  0
   -2.9160   -2.3683   -2.6807 C   0  0  0  0  0  0  0  0  0  0  0  0
   -4.0236   -3.1187   -3.1146 C   0  0  0  0  0  0  0  0  0  0  0  0
   -4.9298   -3.5430   -2.1475 C   0  0  0  0  0  0  0  0  0  0  0  0
   -4.7680   -3.2537   -0.8318 C   0  0  0  0  0  0  0  0  0  0  0  0
   -3.6851   -2.5139   -0.3649 C   0  0  0  0  0  0  0  0  0  0  0  0
   -5.8110   -3.7981   -0.1095 O   0  0  0  0  0  0  0  0  0  0  0  0
   -6.6833   -4.4718   -1.0280 C   0  0  0  0  0  0  0  0  0  0  0  0
   -6.0825   -4.2835   -2.3171 O   0  0  0  0  0  0  0  0  0  0  0  0
  1  2  2  0
  2  3  1  0
  3  4  1  0
  4  5  2  0
  5  6  1  0
  6  7  1  0
  7  8  2  0
  8  9  1  0
  9 10  2  0
 10 11  1  0
 11 12  2  0
 12 13  1  0
 13 14  1  0
 14 15  2  0
  6 16  2  0
 16 17  1  0
  2 18  1  0
 18 19  2  0
 19 20  1  0
 20 21  2  0
 21 22  1  0
 22 23  2  0
 22 24  1  0
 24 25  1  0
 25 26  1  0
 17  4  1  0
 23 18  1  0
 15  7  1  0
 26 21  1  0
 14 10  1  0
M  END
$$$$
34
     RDKit          3D

 25 28  0  0  0  0  0  0  0  0999 V2000
    0.5218   -4.2461    6.2147 N   0  0  0  0  0  0  0  0  0  0  0  0
    1.2242   -3.9262    5.0454 N   0  0  0  0  0  0  0  0  0  0  0  0
    1.1194   -2.6380    4.4383 C   0  0  0  0  0  0  0  0  0  0  0  0
    0.2936   -1.6346    5.0054 C   0  0  0  0  0  0  0  0  0  0  0  0
    0.1881   -0.3643    4.4088 C   0  0  0  0  0  0  0  0  0  0  0  0
    0.9250   -0.1413    3.2500 C   0  0  0  0  0  0  0  0  0  0  0  0
    0.9776    0.9774    2.5128 N   0  0  0  0  0  0  0  0  0  0  0  0
    1.8096    0.7132    1.5108 N   0  0  0  0  0  0  0  0  0  0  0  0
    2.1150    1.6609    0.4523 C   0  0  0  0  0  0  0  0  0  0  0  0
    1.0750    1.5893   -0.6112 C   0  0  0  0  0  0  0  0  0  0  0  0
    0.1053    2.3927   -0.5832 O   0  0  0  0  0  0  0  0  0  0  0  0
    1.1758    0.5832   -1.6254 N   0  0  0  0  0  0  0  0  0  0  0  0
    0.2390    0.3710   -2.6874 C   0  0  0  0  0  0  0  0  0  0  0  0
    0.4747   -0.6573   -3.6058 C   0  0  0  0  0  0  0  0  0  0  0  0
   -0.4308   -0.8772   -4.6458 C   0  0  0  0  0  0  0  0  0  0  0  0
   -1.5618   -0.0697   -4.7589 C   0  0  0  0  0  0  0  0  0  0  0  0
   -2.4826   -0.2700   -5.7906 C   0  0  0  0  0  0  0  0  0  0  0  0
   -3.6107    0.5516   -5.8855 C   0  0  0  0  0  0  0  0  0  0  0  0
   -3.8186    1.5720   -4.9506 C   0  0  0  0  0  0  0  0  0  0  0  0
   -2.8995    1.7763   -3.9160 C   0  0  0  0  0  0  0  0  0  0  0  0
   -1.7702    0.9591   -3.8154 C   0  0  0  0  0  0  0  0  0  0  0  0
   -0.8722    1.1509   -2.8129 N   0  0  0  0  0  0  0  0  0  0  0  0
    2.2890   -0.5530    1.5744 C   0  0  0  0  0  0  0  0  0  0  0  0
    1.7222   -1.1063    2.7003 C   0  0  0  0  0  0  0  0  0  0  0  0
    1.8483   -2.3724    3.2629 C   0  0  0  0  0  0  0  0  0  0  0  0
  1  2  1  0
  2  3  1  0
  3  4  1  0
  4  5  2  0
  5  6  1  0
  6  7  2  0
  7  8  1  0
  8  9  1  0
  9 10  1  0
 10 11  2  0
 10 12  1  0
 12 13  1  0
 13 14  2  0
 14 15  1  0
 15 16  2  0
 16 17  1  0
 17 18  2  0
 18 19  1  0
 19 20  2  0
 20 21  1  0
 21 22  2  0
  8 23  1  0
 23 24  2  0
 24 25  1  0
 25  3  2  0
 24  6  1  0
 22 13  1  0
 21 16  1  0
M  END
$$$$
35
     RDKit          3D

 24 27  0  0  0  0  0  0  0  0999 V2000
   -2.9373    2.6235    7.0649 N   0  0  0  0  0  0  0  0  0  0  0  0
   -2.4318    2.5320    5.7621 N   0  0  0  0  0  0  0  0  0  0  0  0
   -2.1332    1.2645    5.1742 C   0  0  0  0  0  0  0  0  0  0  0  0
   -2.3249    0.2062    5.8322 O   0  0  0  0  0  0  0  0  0  0  0  0
   -1.6028    1.1880    3.8043 C   0  0  0  0  0  0  0  0  0  0  0  0
   -1.3846    2.3570    3.0606 C   0  0  0  0  0  0  0  0  0  0  0  0
   -0.8806    2.2672    1.7614 C   0  0  0  0  0  0  0  0  0  0  0  0
   -0.5993    1.0154    1.2164 C   0  0  0  0  0  0  0  0  0  0  0  0
   -0.1081    0.9033   -0.0460 N   0  0  0  0  0  0  0  0  0  0  0  0
    0.1754   -0.3099   -0.6025 C   0  0  0  0  0  0  0  0  0  0  0  0
    0.7084   -0.3828   -1.9800 C   0  0  0  0  0  0  0  0  0  0  0  0
    0.9226    0.7949   -2.7143 C   0  0  0  0  0  0  0  0  0  0  0  0
    1.4259    0.7430   -4.0174 C   0  0  0  0  0  0  0  0  0  0  0  0
    1.7214   -0.4899   -4.6021 C   0  0  0  0  0  0  0  0  0  0  0  0
    2.2249   -0.5500   -5.9045 C   0  0  0  0  0  0  0  0  0  0  0  0
    2.5184   -1.7891   -6.4830 C   0  0  0  0  0  0  0  0  0  0  0  0
    2.3093   -2.9695   -5.7615 C   0  0  0  0  0  0  0  0  0  0  0  0
    1.8057   -2.9168   -4.4578 C   0  0  0  0  0  0  0  0  0  0  0  0
    1.5102   -1.6821   -3.8734 C   0  0  0  0  0  0  0  0  0  0  0  0
    1.0070   -1.6216   -2.5718 C   0  0  0  0  0  0  0  0  0  0  0  0
   -0.0445   -1.4788    0.1452 C   0  0  0  0  0  0  0  0  0  0  0  0
   -0.5484   -1.3895    1.4442 C   0  0  0  0  0  0  0  0  0  0  0  0
   -0.8297   -0.1382    1.9893 C   0  0  0  0  0  0  0  0  0  0  0  0
   -1.3209   -0.0261    3.2519 N   0  0  0  0  0  0  0  0  0  0  0  0
  1  2  1  0
  2  3  1  0
  3  4  2  0
  3  5  1  0
  5  6  2  0
  6  7  1  0
  7  8  2  0
  8  9  1  0
  9 10  2  0
 10 11  1  0
 11 12  2  0
 12 13  1  0
 13 14  2  0
 14 15  1  0
 15 16  2  0
 16 17  1  0
 17 18  2  0
 18 19  1  0
 19 20  2  0
 10 21  1  0
 21 22  2  0
 22 23  1  0
 23 24  2  0
 24  5  1  0
 23  8  1  0
 20 11  1  0
 19 14  1  0
M  END
$$$$
36
     RDKit          3D

 25 28  0  0  0  0  0  0  0  0999 V2000
   -3.6251   -0.5724    7.4003 O   0  0  0  0  0  0  0  0  0  0  0  0
   -2.9571    0.3764    6.6339 C   0  0  0  0  0  0  0  0  0  0  0  0
   -2.3898    0.0580    5.4749 C   0  0  0  0  0  0  0  0  0  0  0  0
   -2.4037   -1.3625    4.9743 C   0  0  0  0  0  0  0  0  0  0  0  0
   -2.1639   -1.4295    3.5330 N   0  0  0  0  0  0  0  0  0  0  0  0
   -1.4068   -0.4362    2.8366 C   0  0  0  0  0  0  0  0  0  0  0  0
   -0.9529   -0.6790    1.5374 C   0  0  0  0  0  0  0  0  0  0  0  0
   -0.2226    0.2969    0.8496 C   0  0  0  0  0  0  0  0  0  0  0  0
    0.2330    0.0071   -0.4789 N   0  0  0  0  0  0  0  0  0  0  0  0
    0.9905    0.8726   -1.3388 C   0  0  0  0  0  0  0  0  0  0  0  0
    1.3284    2.0250   -0.9534 O   0  0  0  0  0  0  0  0  0  0  0  0
    1.3764    0.4097   -2.6835 C   0  0  0  0  0  0  0  0  0  0  0  0
    2.1169    1.2439   -3.5358 C   0  0  0  0  0  0  0  0  0  0  0  0
    2.4856    0.8096   -4.8126 C   0  0  0  0  0  0  0  0  0  0  0  0
    2.1168   -0.4645   -5.2492 C   0  0  0  0  0  0  0  0  0  0  0  0
    2.4815   -0.9059   -6.5242 C   0  0  0  0  0  0  0  0  0  0  0  0
    2.1082   -2.1834   -6.9541 C   0  0  0  0  0  0  0  0  0  0  0  0
    1.3702   -3.0215   -6.1112 C   0  0  0  0  0  0  0  0  0  0  0  0
    1.0017   -2.5865   -4.8341 C   0  0  0  0  0  0  0  0  0  0  0  0
    1.3712   -1.3113   -4.3978 C   0  0  0  0  0  0  0  0  0  0  0  0
    1.0067   -0.8699   -3.1235 C   0  0  0  0  0  0  0  0  0  0  0  0
    0.0406    1.5265    1.4745 C   0  0  0  0  0  0  0  0  0  0  0  0
   -0.4251    1.7779    2.7685 C   0  0  0  0  0  0  0  0  0  0  0  0
   -1.1490    0.7971    3.4501 C   0  0  0  0  0  0  0  0  0  0  0  0
   -1.6740    1.0635    4.7513 N   0  0  0  0  0  0  0  0  0  0  0  0
  1  2  1  0
  2  3  2  3
  3  4  1  0
  4  5  1  0
  5  6  1  0
  6  7  2  0
  7  8  1  0
  8  9  1  0
  9 10  1  0
 10 11  2  0
 10 12  1  0
 12 13  2  0
 13 14  1  0
 14 15  2  0
 15 16  1  0
 16 17  2  0
 17 18  1  0
 18 19  2  0
 19 20  1  0
 20 21  2  0
  8 22  2  0
 22 23  1  0
 23 24  2  0
 24 25  1  0
 25  3  1  0
 24  6  1  0
 21 12  1  0
 20 15  1  0
M  END
$$$$
37
     RDKit          3D

 27 30  0  0  0  0  0  0  0  0999 V2000
   -0.3871    6.7987    3.8530 N   0  0  0  0  0  0  0  0  0  0  0  0
    0.0987    5.6928    3.1439 N   0  0  0  0  0  0  0  0  0  0  0  0
    1.0344    4.7890    3.7359 C   0  0  0  0  0  0  0  0  0  0  0  0
    1.4153    4.9731    4.9241 O   0  0  0  0  0  0  0  0  0  0  0  0
    1.5323    3.6734    2.9855 N   0  0  0  0  0  0  0  0  0  0  0  0
    2.5849    2.8252    3.5415 C   0  0  0  0  0  0  0  0  0  0  0  0
    2.3686    1.3812    3.0961 C   0  0  0  0  0  0  0  0  0  0  0  0
    2.2492    1.3211    1.6384 N   0  0  0  0  0  0  0  0  0  0  0  0
    2.1754   -0.0906    1.2356 C   0  0  0  0  0  0  0  0  0  0  0  0
    2.3488   -0.2435   -0.2869 C   0  0  0  0  0  0  0  0  0  0  0  0
    1.2080   -1.0977   -0.6758 C   0  0  0  0  0  0  0  0  0  0  0  0
    0.9124   -1.5752   -1.9491 C   0  0  0  0  0  0  0  0  0  0  0  0
   -0.2351   -2.3708   -2.1250 C   0  0  0  0  0  0  0  0  0  0  0  0
   -0.5522   -2.9179   -3.4661 C   0  0  0  0  0  0  0  0  0  0  0  0
    0.3462   -2.8990   -4.3521 O   0  0  0  0  0  0  0  0  0  0  0  0
   -1.8391   -3.4774   -3.7893 N   0  0  0  0  0  0  0  0  0  0  0  0
   -1.9413   -4.4254   -4.9043 C   0  0  0  0  0  0  0  0  0  0  0  0
   -3.3920   -4.8236   -5.1677 C   0  0  0  0  0  0  0  0  0  0  0  0
   -4.2636   -3.5758   -5.2954 C   0  0  0  0  0  0  0  0  0  0  0  0
   -4.1128   -2.6033   -4.1128 C   0  0  0  0  0  0  0  0  0  0  0  0
   -3.0539   -3.0397   -3.0990 C   0  0  0  0  0  0  0  0  0  0  0  0
   -1.0301   -2.6663   -0.9972 C   0  0  0  0  0  0  0  0  0  0  0  0
   -0.7065   -2.1735    0.2328 N   0  0  0  0  0  0  0  0  0  0  0  0
    0.3976   -1.3990    0.3834 C   0  0  0  0  0  0  0  0  0  0  0  0
    0.8597   -0.7953    1.6484 C   0  0  0  0  0  0  0  0  0  0  0  0
    1.0461    2.0556    1.2257 C   0  0  0  0  0  0  0  0  0  0  0  0
    1.1979    3.5338    1.5700 C   0  0  0  0  0  0  0  0  0  0  0  0
  1  2  1  0
  2  3  1  0
  3  4  2  0
  3  5  1  0
  5  6  1  0
  6  7  1  0
  7  8  1  0
  8  9  1  0
  9 10  1  0
 10 11  1  0
 11 12  2  0
 12 13  1  0
 13 14  1  0
 14 15  2  0
 14 16  1  0
 16 17  1  0
 17 18  1  0
 18 19  1  0
 19 20  1  0
 20 21  1  0
 13 22  2  0
 22 23  1  0
 23 24  2  0
 24 25  1  0
  8 26  1  0
 26 27  1  0
 27  5  1  0
 25  9  1  0
 24 11  1  0
 21 16  1  0
M  END
$$$$
38
     RDKit          3D

 22 24  0  0  0  0  0  0  0  0999 V2000
   -5.5758    0.0755    5.0791 C   0  0  0  0  0  0  0  0  0  0  0  0
   -4.2380    0.6427    5.0563 N   0  0  0  0  0  0  0  0  0  0  0  0
   -3.3630    0.4738    3.9414 C   0  0  0  0  0  0  0  0  0  0  0  0
   -3.7423   -0.1841    2.9346 O   0  0  0  0  0  0  0  0  0  0  0  0
   -2.0566    1.0614    3.9884 N   0  0  0  0  0  0  0  0  0  0  0  0
   -1.0482    0.9977    2.9704 C   0  0  0  0  0  0  0  0  0  0  0  0
   -1.2533    0.3162    1.7621 C   0  0  0  0  0  0  0  0  0  0  0  0
   -0.2463    0.2767    0.7944 C   0  0  0  0  0  0  0  0  0  0  0  0
    0.9807    0.9174    1.0194 C   0  0  0  0  0  0  0  0  0  0  0  0
    2.0434    0.9030    0.0539 N   0  0  0  0  0  0  0  0  0  0  0  0
    2.0701    0.2799   -1.2394 C   0  0  0  0  0  0  0  0  0  0  0  0
    3.2442    0.4046   -2.0196 C   0  0  0  0  0  0  0  0  0  0  0  0
    3.3360   -0.1819   -3.2956 C   0  0  0  0  0  0  0  0  0  0  0  0
    2.2264   -0.8851   -3.7513 C   0  0  0  0  0  0  0  0  0  0  0  0
    2.0633   -1.5117   -4.8847 O   0  0  0  0  0  0  0  0  0  0  0  0
    0.8416   -2.0129   -4.8302 C   0  0  0  0  0  0  0  0  0  0  0  0
    0.3368   -2.6892   -5.7639 O   0  0  0  0  0  0  0  0  0  0  0  0
    0.1753   -1.7363   -3.6795 N   0  0  0  0  0  0  0  0  0  0  0  0
    1.0898   -1.0130   -3.0107 C   0  0  0  0  0  0  0  0  0  0  0  0
    0.9681   -0.4451   -1.7463 C   0  0  0  0  0  0  0  0  0  0  0  0
    1.1825    1.5963    2.2255 C   0  0  0  0  0  0  0  0  0  0  0  0
    0.1754    1.6363    3.1943 C   0  0  0  0  0  0  0  0  0  0  0  0
  1  2  1  0
  2  3  1  0
  3  4  2  0
  3  5  1  0
  5  6  1  0
  6  7  2  0
  7  8  1  0
  8  9  2  0
  9 10  1  0
 10 11  1  0
 11 12  2  0
 12 13  1  0
 13 14  2  0
 14 15  1  0
 15 16  1  0
 16 17  2  0
 16 18  1  0
 18 19  1  0
 19 20  2  0
  9 21  1  0
 21 22  2  0
 22  6  1  0
 20 11  1  0
 19 14  1  0
M  END
$$$$
39
     RDKit          3D

 29 33  0  0  0  0  0  0  0  0999 V2000
    0.7165    3.2851   -1.3712 O   0  0  0  0  0  0  0  0  0  0  0  0
    1.0139    2.2205   -0.7631 C   0  0  0  0  0  0  0  0  0  0  0  0
    2.1726    2.2188    0.1572 C   0  0  0  0  0  0  0  0  0  0  0  0
    2.3076    1.2416    1.1556 C   0  0  0  0  0  0  0  0  0  0  0  0
    3.3640    1.2669    2.0125 N   0  0  0  0  0  0  0  0  0  0  0  0
    4.3149    2.2349    1.9383 C   0  0  0  0  0  0  0  0  0  0  0  0
    5.3901    2.2365    2.8314 C   0  0  0  0  0  0  0  0  0  0  0  0
    6.3625    3.2390    2.7509 C   0  0  0  0  0  0  0  0  0  0  0  0
    6.2615    4.2409    1.7791 C   0  0  0  0  0  0  0  0  0  0  0  0
    5.1879    4.2452    0.8826 C   0  0  0  0  0  0  0  0  0  0  0  0
    4.2149    3.2453    0.9587 C   0  0  0  0  0  0  0  0  0  0  0  0
    3.1370    3.2316    0.0746 C   0  0  0  0  0  0  0  0  0  0  0  0
    0.1657    1.0270   -0.9702 C   0  0  0  0  0  0  0  0  0  0  0  0
   -1.2254    1.1840   -1.0118 C   0  0  0  0  0  0  0  0  0  0  0  0
   -2.0588    0.0823   -1.2160 C   0  0  0  0  0  0  0  0  0  0  0  0
   -1.5168   -1.1994   -1.3939 C   0  0  0  0  0  0  0  0  0  0  0  0
   -2.3762   -2.3373   -1.5945 N   0  0  0  0  0  0  0  0  0  0  0  0
   -1.8169   -3.6620   -1.8509 C   0  0  0  0  0  0  0  0  0  0  0  0
   -2.3930   -4.6547   -0.8499 C   0  0  0  0  0  0  0  0  0  0  0  0
   -3.8876   -4.5484   -0.7725 C   0  0  0  0  0  0  0  0  0  0  0  0
   -4.6140   -5.6323   -0.2690 C   0  0  0  0  0  0  0  0  0  0  0  0
   -6.0015   -5.5458   -0.1270 C   0  0  0  0  0  0  0  0  0  0  0  0
   -6.6688   -4.3701   -0.4793 C   0  0  0  0  0  0  0  0  0  0  0  0
   -5.9496   -3.2779   -0.9719 C   0  0  0  0  0  0  0  0  0  0  0  0
   -4.5600   -3.3528   -1.1109 C   0  0  0  0  0  0  0  0  0  0  0  0
   -3.8283   -2.1729   -1.6878 C   0  0  0  0  0  0  0  0  0  0  0  0
   -0.1219   -1.3521   -1.3741 C   0  0  0  0  0  0  0  0  0  0  0  0
    0.7169   -0.2533   -1.1690 C   0  0  0  0  0  0  0  0  0  0  0  0
    2.0599   -0.4388   -1.2133 F   0  0  0  0  0  0  0  0  0  0  0  0
  1  2  2  0
  2  3  1  0
  3  4  2  0
  4  5  1  0
  5  6  2  0
  6  7  1  0
  7  8  2  0
  8  9  1  0
  9 10  2  0
 10 11  1  0
 11 12  2  0
  2 13  1  0
 13 14  2  0
 14 15  1  0
 15 16  2  0
 16 17  1  0
 17 18  1  0
 18 19  1  0
 19 20  1  0
 20 21  2  0
 21 22  1  0
 22 23  2  0
 23 24  1  0
 24 25  2  0
 25 26  1  0
 16 27  1  0
 27 28  2  0
 28 29  1  0
 12  3  1  0
 28 13  1  0
 11  6  1  0
 26 17  1  0
 25 20  1  0
M  END
$$$$
40
     RDKit          3D

 25 28  0  0  0  0  0  0  0  0999 V2000
   -0.7686    1.0785    8.6198 N   0  0  0  0  0  0  0  0  0  0  0  0
   -0.9146    0.2006    7.5384 N   0  0  0  0  0  0  0  0  0  0  0  0
   -0.5940    0.6089    6.2102 C   0  0  0  0  0  0  0  0  0  0  0  0
   -0.1715    1.7772    5.9967 O   0  0  0  0  0  0  0  0  0  0  0  0
   -0.7596   -0.3246    5.1353 N   0  0  0  0  0  0  0  0  0  0  0  0
   -0.4898   -0.0927    3.7459 C   0  0  0  0  0  0  0  0  0  0  0  0
   -0.0100    1.1419    3.2780 C   0  0  0  0  0  0  0  0  0  0  0  0
    0.2436    1.3373    1.9169 C   0  0  0  0  0  0  0  0  0  0  0  0
    0.0192    0.2984    1.0112 C   0  0  0  0  0  0  0  0  0  0  0  0
    0.2630    0.4795   -0.3138 N   0  0  0  0  0  0  0  0  0  0  0  0
    0.0550   -0.5130   -1.2262 C   0  0  0  0  0  0  0  0  0  0  0  0
    0.3320   -0.2762   -2.6557 C   0  0  0  0  0  0  0  0  0  0  0  0
    0.8107    0.9700   -3.0869 C   0  0  0  0  0  0  0  0  0  0  0  0
    1.0694    1.1831   -4.4420 C   0  0  0  0  0  0  0  0  0  0  0  0
    0.8497    0.1547   -5.3568 C   0  0  0  0  0  0  0  0  0  0  0  0
    1.1012    0.3440   -6.7182 C   0  0  0  0  0  0  0  0  0  0  0  0
    0.8740   -0.7012   -7.6196 C   0  0  0  0  0  0  0  0  0  0  0  0
    0.3961   -1.9340   -7.1612 C   0  0  0  0  0  0  0  0  0  0  0  0
    0.1428   -2.1280   -5.7992 C   0  0  0  0  0  0  0  0  0  0  0  0
    0.3677   -1.0879   -4.8932 C   0  0  0  0  0  0  0  0  0  0  0  0
    0.1239   -1.2688   -3.5681 N   0  0  0  0  0  0  0  0  0  0  0  0
   -0.4238   -1.7591   -0.7949 C   0  0  0  0  0  0  0  0  0  0  0  0
   -0.6824   -1.9719    0.5603 C   0  0  0  0  0  0  0  0  0  0  0  0
   -0.4625   -0.9432    1.4747 C   0  0  0  0  0  0  0  0  0  0  0  0
   -0.7139   -1.1322    2.8357 C   0  0  0  0  0  0  0  0  0  0  0  0
  1  2  1  0
  2  3  1  0
  3  4  2  0
  3  5  1  0
  5  6  1  0
  6  7  2  0
  7  8  1  0
  8  9  2  0
  9 10  1  0
 10 11  2  0
 11 12  1  0
 12 13  2  0
 13 14  1  0
 14 15  2  0
 15 16  1  0
 16 17  2  0
 17 18  1  0
 18 19  2  0
 19 20  1  0
 20 21  2  0
 11 22  1  0
 22 23  2  0
 23 24  1  0
 24 25  2  0
 25  6  1  0
 24  9  1  0
 21 12  1  0
 20 15  1  0
M  END
$$$$
41
     RDKit          3D

 25 27  0  0  0  0  0  0  0  0999 V2000
   -1.8493    0.0666    7.4106 N   0  0  0  0  0  0  0  0  0  0  0  0
   -1.2936   -0.3511    6.1947 N   0  0  0  0  0  0  0  0  0  0  0  0
   -1.5198    0.3800    4.9887 C   0  0  0  0  0  0  0  0  0  0  0  0
   -2.2340    1.4196    5.0280 O   0  0  0  0  0  0  0  0  0  0  0  0
   -0.9335   -0.0565    3.6929 C   0  0  0  0  0  0  0  0  0  0  0  0
   -1.2078    0.7224    2.5577 C   0  0  0  0  0  0  0  0  0  0  0  0
   -0.6958    0.3808    1.3059 C   0  0  0  0  0  0  0  0  0  0  0  0
    0.1091   -0.7546    1.1518 C   0  0  0  0  0  0  0  0  0  0  0  0
    0.6545   -1.1197   -0.1774 C   0  0  0  0  0  0  0  0  0  0  0  0
    1.4611   -2.2575   -0.3321 C   0  0  0  0  0  0  0  0  0  0  0  0
    1.9730   -2.5986   -1.5849 C   0  0  0  0  0  0  0  0  0  0  0  0
    1.6837   -1.8053   -2.6968 C   0  0  0  0  0  0  0  0  0  0  0  0
    0.8800   -0.6619   -2.5722 C   0  0  0  0  0  0  0  0  0  0  0  0
    0.5878    0.1649   -3.7729 C   0  0  0  0  0  0  0  0  0  0  0  0
    1.1132   -0.2136   -4.9724 N   0  0  0  0  0  0  0  0  0  0  0  0
    0.8861    0.4959   -6.1080 C   0  0  0  0  0  0  0  0  0  0  0  0
    1.4533    0.0662   -7.3393 N   0  0  0  0  0  0  0  0  0  0  0  0
    0.1186    1.6141   -6.0688 N   0  0  0  0  0  0  0  0  0  0  0  0
   -0.4302    2.0380   -4.9026 C   0  0  0  0  0  0  0  0  0  0  0  0
   -0.2110    1.3262   -3.7243 C   0  0  0  0  0  0  0  0  0  0  0  0
   -0.7729    1.7749   -2.5745 F   0  0  0  0  0  0  0  0  0  0  0  0
    0.3729   -0.3325   -1.3054 C   0  0  0  0  0  0  0  0  0  0  0  0
    0.3890   -1.5390    2.2791 C   0  0  0  0  0  0  0  0  0  0  0  0
   -0.1182   -1.2075    3.5395 C   0  0  0  0  0  0  0  0  0  0  0  0
    0.2414   -2.1104    4.6700 C   0  0  0  0  0  0  0  0  0  0  0  0
  1  2  1  0
  2  3  1  0
  3  4  2  0
  3  5  1  0
  5  6  2  0
  6  7  1  0
  7  8  2  0
  8  9  1  0
  9 10  2  0
 10 11  1  0
 11 12  2  0
 12 13  1  0
 13 14  1  0
 14 15  2  0
 15 16  1  0
 16 17  1  0
 16 18  2  0
 18 19  1  0
 19 20  2  0
 20 21  1  0
 13 22  2  0
  8 23  1  0
 23 24  2  0
 24 25  1  0
 24  5  1  0
 22  9  1  0
 20 14  1  0
M  END
$$$$
42
     RDKit          3D

 24 27  0  0  0  0  0  0  0  0999 V2000
   -2.9691   -0.8903    5.9731 N   0  0  0  0  0  0  0  0  0  0  0  0
   -2.1622   -0.4236    4.9279 N   0  0  0  0  0  0  0  0  0  0  0  0
   -1.2183    0.6268    5.1382 C   0  0  0  0  0  0  0  0  0  0  0  0
   -1.1012    1.1495    6.2789 O   0  0  0  0  0  0  0  0  0  0  0  0
   -0.3792    1.1047    4.0299 C   0  0  0  0  0  0  0  0  0  0  0  0
    0.5397    2.0958    4.1453 N   0  0  0  0  0  0  0  0  0  0  0  0
    1.1270    2.2883    2.9662 N   0  0  0  0  0  0  0  0  0  0  0  0
    0.5736    1.4145    2.1102 C   0  0  0  0  0  0  0  0  0  0  0  0
    0.8782    1.2675    0.7979 N   0  0  0  0  0  0  0  0  0  0  0  0
    0.2149    0.3214    0.0592 C   0  0  0  0  0  0  0  0  0  0  0  0
    0.5367    0.1498   -1.3738 C   0  0  0  0  0  0  0  0  0  0  0  0
    1.5185    0.9536   -1.9754 C   0  0  0  0  0  0  0  0  0  0  0  0
    1.8339    0.8034   -3.3290 C   0  0  0  0  0  0  0  0  0  0  0  0
    1.1696   -0.1543   -4.0975 C   0  0  0  0  0  0  0  0  0  0  0  0
    1.4792   -0.3106   -5.4513 C   0  0  0  0  0  0  0  0  0  0  0  0
    0.8091   -1.2724   -6.2142 C   0  0  0  0  0  0  0  0  0  0  0  0
   -0.1711   -2.0793   -5.6262 C   0  0  0  0  0  0  0  0  0  0  0  0
   -0.8326   -3.0319   -6.3885 O   0  0  0  0  0  0  0  0  0  0  0  0
   -0.4858   -1.9281   -4.2718 C   0  0  0  0  0  0  0  0  0  0  0  0
    0.1797   -0.9691   -3.5034 C   0  0  0  0  0  0  0  0  0  0  0  0
   -0.1296   -0.8127   -2.1503 C   0  0  0  0  0  0  0  0  0  0  0  0
   -0.7766   -0.4863    0.6782 C   0  0  0  0  0  0  0  0  0  0  0  0
   -1.0809   -0.3213    2.0409 C   0  0  0  0  0  0  0  0  0  0  0  0
   -0.3703    0.6555    2.7279 C   0  0  0  0  0  0  0  0  0  0  0  0
  1  2  1  0
  2  3  1  0
  3  4  2  0
  3  5  1  0
  5  6  2  0
  6  7  1  0
  7  8  1  0
  8  9  2  0
  9 10  1  0
 10 11  1  0
 11 12  2  0
 12 13  1  0
 13 14  2  0
 14 15  1  0
 15 16  2  0
 16 17  1  0
 17 18  1  0
 17 19  2  0
 19 20  1  0
 20 21  2  0
 10 22  2  0
 22 23  1  0
 23 24  2  0
 24  5  1  0
 24  8  1  0
 21 11  1  0
 20 14  1  0
M  END
$$$$
43
     RDKit          3D

 26 30  0  0  0  0  0  0  0  0999 V2000
    1.7369   -0.7437   -2.5901 O   0  0  0  0  0  0  0  0  0  0  0  0
    1.0741   -0.5304   -1.5401 C   0  0  0  0  0  0  0  0  0  0  0  0
    1.7287   -0.3277   -0.2799 N   0  0  0  0  0  0  0  0  0  0  0  0
    3.1415   -0.3354   -0.0342 C   0  0  0  0  0  0  0  0  0  0  0  0
    3.5987   -0.1146    1.2859 C   0  0  0  0  0  0  0  0  0  0  0  0
    4.9738   -0.1114    1.5853 C   0  0  0  0  0  0  0  0  0  0  0  0
    5.8565   -0.3334    0.5328 C   0  0  0  0  0  0  0  0  0  0  0  0
    7.1945   -0.3745    0.5792 N   0  0  0  0  0  0  0  0  0  0  0  0
    7.5387   -0.6199   -0.7132 C   0  0  0  0  0  0  0  0  0  0  0  0
    6.4742   -0.7315   -1.5520 N   0  0  0  0  0  0  0  0  0  0  0  0
    5.4273   -0.5462   -0.7373 C   0  0  0  0  0  0  0  0  0  0  0  0
    4.0760   -0.5564   -1.0706 C   0  0  0  0  0  0  0  0  0  0  0  0
   -0.3885   -0.4888   -1.6082 C   0  0  0  0  0  0  0  0  0  0  0  0
   -1.1874   -0.2682   -0.5463 N   0  0  0  0  0  0  0  0  0  0  0  0
   -2.4084   -0.3262   -1.1190 C   0  0  0  0  0  0  0  0  0  0  0  0
   -3.6623   -0.1461   -0.3754 C   0  0  0  0  0  0  0  0  0  0  0  0
   -4.9071   -0.2212   -1.0476 C   0  0  0  0  0  0  0  0  0  0  0  0
   -6.1060   -0.0485   -0.3336 C   0  0  0  0  0  0  0  0  0  0  0  0
   -6.0008    0.1932    1.0309 C   0  0  0  0  0  0  0  0  0  0  0  0
   -6.9658    0.4014    1.9901 C   0  0  0  0  0  0  0  0  0  0  0  0
   -6.2264    0.5857    3.1657 C   0  0  0  0  0  0  0  0  0  0  0  0
   -4.9297    0.4936    2.9189 O   0  0  0  0  0  0  0  0  0  0  0  0
   -4.7907    0.2590    1.6440 C   0  0  0  0  0  0  0  0  0  0  0  0
   -3.6247    0.0951    0.9717 N   0  0  0  0  0  0  0  0  0  0  0  0
   -2.3478   -0.5669   -2.4442 N   0  0  0  0  0  0  0  0  0  0  0  0
   -1.0804   -0.6611   -2.7075 O   0  0  0  0  0  0  0  0  0  0  0  0
  1  2  2  0
  2  3  1  0
  3  4  1  0
  4  5  2  0
  5  6  1  0
  6  7  2  0
  7  8  1  0
  8  9  1  0
  9 10  2  0
 10 11  1  0
 11 12  2  0
  2 13  1  0
 13 14  2  0
 14 15  1  0
 15 16  1  0
 16 17  2  0
 17 18  1  0
 18 19  2  0
 19 20  1  0
 20 21  2  0
 21 22  1  0
 22 23  1  0
 23 24  2  0
 15 25  2  0
 25 26  1  0
 12  4  1  0
 26 13  1  0
 11  7  1  0
 24 16  1  0
 23 19  1  0
M  END
$$$$
44
     RDKit          3D

 25 28  0  0  0  0  0  0  0  0999 V2000
   -3.3278    1.4190    2.6407 O   0  0  0  0  0  0  0  0  0  0  0  0
   -2.3590    0.8019    2.1225 C   0  0  0  0  0  0  0  0  0  0  0  0
   -1.2306    0.3683    2.9992 C   0  0  0  0  0  0  0  0  0  0  0  0
   -0.2128    1.4069    3.0312 N   0  0  0  0  0  0  0  0  0  0  0  0
    1.0763    0.7557    3.2142 C   0  0  0  0  0  0  0  0  0  0  0  0
    1.6622    0.3914    1.8910 C   0  0  0  0  0  0  0  0  0  0  0  0
    2.1361    1.3905    1.0313 C   0  0  0  0  0  0  0  0  0  0  0  0
    2.6418    1.0547   -0.2282 C   0  0  0  0  0  0  0  0  0  0  0  0
    2.6720   -0.2820   -0.6339 C   0  0  0  0  0  0  0  0  0  0  0  0
    3.1642   -0.6242   -1.8963 C   0  0  0  0  0  0  0  0  0  0  0  0
    3.1836   -1.9635   -2.2985 C   0  0  0  0  0  0  0  0  0  0  0  0
    2.7119   -2.9628   -1.4404 C   0  0  0  0  0  0  0  0  0  0  0  0
    2.2181   -2.6282   -0.1754 C   0  0  0  0  0  0  0  0  0  0  0  0
    2.1957   -1.2923    0.2337 C   0  0  0  0  0  0  0  0  0  0  0  0
    1.6923   -0.9491    1.4910 C   0  0  0  0  0  0  0  0  0  0  0  0
   -2.3294    0.5557    0.6669 C   0  0  0  0  0  0  0  0  0  0  0  0
   -3.3682    1.0539   -0.1591 C   0  0  0  0  0  0  0  0  0  0  0  0
   -3.3544    0.8388   -1.5497 C   0  0  0  0  0  0  0  0  0  0  0  0
   -2.2847    0.1203   -2.0754 C   0  0  0  0  0  0  0  0  0  0  0  0
   -2.0653   -0.1991   -3.3590 N   0  0  0  0  0  0  0  0  0  0  0  0
   -0.8979   -0.8884   -3.2829 C   0  0  0  0  0  0  0  0  0  0  0  0
   -0.3346   -1.3738   -4.2982 O   0  0  0  0  0  0  0  0  0  0  0  0
   -0.3808   -1.0170   -2.0348 N   0  0  0  0  0  0  0  0  0  0  0  0
   -1.2843   -0.3648   -1.2899 C   0  0  0  0  0  0  0  0  0  0  0  0
   -1.2666   -0.1707    0.0871 C   0  0  0  0  0  0  0  0  0  0  0  0
  1  2  2  0
  2  3  1  0
  3  4  1  0
  4  5  1  0
  5  6  1  0
  6  7  2  0
  7  8  1  0
  8  9  2  0
  9 10  1  0
 10 11  2  0
 11 12  1  0
 12 13  2  0
 13 14  1  0
 14 15  2  0
  2 16  1  0
 16 17  2  0
 17 18  1  0
 18 19  2  0
 19 20  1  0
 20 21  1  0
 21 22  2  0
 21 23  1  0
 23 24  1  0
 24 25  2  0
 15  6  1  0
 25 16  1  0
 14  9  1  0
 24 19  1  0
M  END
$$$$
45
     RDKit          3D

 27 31  0  0  0  0  0  0  0  0999 V2000
   -0.3554    1.4705    1.9056 O   0  0  0  0  0  0  0  0  0  0  0  0
    0.3422    0.9806    0.9761 C   0  0  0  0  0  0  0  0  0  0  0  0
    1.7219    1.3488    0.8254 N   0  0  0  0  0  0  0  0  0  0  0  0
    2.4645    2.2611    1.6456 C   0  0  0  0  0  0  0  0  0  0  0  0
    1.8713    2.9264    2.7498 C   0  0  0  0  0  0  0  0  0  0  0  0
    2.6154    3.8187    3.5440 C   0  0  0  0  0  0  0  0  0  0  0  0
    3.9483    4.0166    3.1994 C   0  0  0  0  0  0  0  0  0  0  0  0
    4.8449    4.8100    3.8006 N   0  0  0  0  0  0  0  0  0  0  0  0
    5.9861    4.6812    3.1291 N   0  0  0  0  0  0  0  0  0  0  0  0
    5.8297    3.8104    2.0997 C   0  0  0  0  0  0  0  0  0  0  0  0
    4.5238    3.3818    2.1414 C   0  0  0  0  0  0  0  0  0  0  0  0
    3.8190    2.4938    1.3351 C   0  0  0  0  0  0  0  0  0  0  0  0
   -0.2640    0.0214    0.0358 C   0  0  0  0  0  0  0  0  0  0  0  0
    0.4985   -0.5315   -1.0020 C   0  0  0  0  0  0  0  0  0  0  0  0
   -0.0757   -1.4412   -1.8940 C   0  0  0  0  0  0  0  0  0  0  0  0
   -1.4205   -1.8122   -1.7624 C   0  0  0  0  0  0  0  0  0  0  0  0
   -2.0120   -2.7746   -2.7132 C   0  0  0  0  0  0  0  0  0  0  0  0
   -1.3282   -3.3437   -3.7364 N   0  0  0  0  0  0  0  0  0  0  0  0
   -2.1372   -4.1602   -4.4061 N   0  0  0  0  0  0  0  0  0  0  0  0
   -3.3387   -4.1107   -3.8077 C   0  0  0  0  0  0  0  0  0  0  0  0
   -4.4936   -4.8017   -4.1646 C   0  0  0  0  0  0  0  0  0  0  0  0
   -5.6438   -4.5881   -3.3820 C   0  0  0  0  0  0  0  0  0  0  0  0
   -5.6103   -3.7035   -2.2805 C   0  0  0  0  0  0  0  0  0  0  0  0
   -4.4262   -3.0205   -1.9466 C   0  0  0  0  0  0  0  0  0  0  0  0
   -3.3060   -3.2553   -2.7427 C   0  0  0  0  0  0  0  0  0  0  0  0
   -2.1828   -1.2590   -0.7242 C   0  0  0  0  0  0  0  0  0  0  0  0
   -1.6095   -0.3493    0.1682 C   0  0  0  0  0  0  0  0  0  0  0  0
  1  2  2  0
  2  3  1  0
  3  4  1  0
  4  5  2  0
  5  6  1  0
  6  7  2  0
  7  8  1  0
  8  9  1  0
  9 10  2  0
 10 11  1  0
 11 12  2  0
  2 13  1  0
 13 14  2  0
 14 15  1  0
 15 16  2  0
 16 17  1  0
 17 18  2  0
 18 19  1  0
 19 20  1  0
 20 21  2  0
 21 22  1  0
 22 23  2  0
 23 24  1  0
 24 25  2  0
 16 26  1  0
 26 27  2  0
 12  4  1  0
 27 13  1  0
 11  7  1  0
 25 17  1  0
 25 20  1  0
M  END
$$$$
46
     RDKit          3D

 25 28  0  0  0  0  0  0  0  0999 V2000
   -0.8553    1.2402    5.8468 C   0  0  0  0  0  0  0  0  0  0  0  0
    0.0040    0.9225    4.7189 N   0  0  0  0  0  0  0  0  0  0  0  0
    1.4251    0.8434    4.8477 C   0  0  0  0  0  0  0  0  0  0  0  0
    1.9733    1.0515    5.9643 O   0  0  0  0  0  0  0  0  0  0  0  0
    2.2492    0.5189    3.6764 C   0  0  0  0  0  0  0  0  0  0  0  0
    3.6024    0.4419    3.7921 N   0  0  0  0  0  0  0  0  0  0  0  0
    4.3789    0.1429    2.7193 C   0  0  0  0  0  0  0  0  0  0  0  0
    3.7917   -0.0903    1.4776 C   0  0  0  0  0  0  0  0  0  0  0  0
    2.3988   -0.0094    1.3661 C   0  0  0  0  0  0  0  0  0  0  0  0
    1.7265   -0.2480    0.0715 C   0  0  0  0  0  0  0  0  0  0  0  0
    2.4762   -0.5653   -1.0925 C   0  0  0  0  0  0  0  0  0  0  0  0
    1.8546   -0.7859   -2.2902 N   0  0  0  0  0  0  0  0  0  0  0  0
    0.5039   -0.6963   -2.3482 C   0  0  0  0  0  0  0  0  0  0  0  0
   -0.2621   -0.8803   -3.4307 N   0  0  0  0  0  0  0  0  0  0  0  0
   -1.5127   -0.6736   -2.9312 C   0  0  0  0  0  0  0  0  0  0  0  0
   -2.7264   -0.7668   -3.7596 C   0  0  0  0  0  0  0  0  0  0  0  0
   -2.6323   -1.0785   -5.1212 C   0  0  0  0  0  0  0  0  0  0  0  0
   -3.7952   -1.1622   -5.8901 C   0  0  0  0  0  0  0  0  0  0  0  0
   -5.0088   -0.9419   -5.3172 N   0  0  0  0  0  0  0  0  0  0  0  0
   -5.1273   -0.6376   -3.9970 C   0  0  0  0  0  0  0  0  0  0  0  0
   -3.9879   -0.5447   -3.1947 C   0  0  0  0  0  0  0  0  0  0  0  0
   -1.5488   -0.3736   -1.6023 N   0  0  0  0  0  0  0  0  0  0  0  0
   -0.2524   -0.3968   -1.2662 C   0  0  0  0  0  0  0  0  0  0  0  0
    0.3205   -0.1622   -0.0227 C   0  0  0  0  0  0  0  0  0  0  0  0
    1.6616    0.2937    2.4703 N   0  0  0  0  0  0  0  0  0  0  0  0
  1  2  1  0
  2  3  1  0
  3  4  2  0
  3  5  1  0
  5  6  2  0
  6  7  1  0
  7  8  2  0
  8  9  1  0
  9 10  1  0
 10 11  2  0
 11 12  1  0
 12 13  2  0
 13 14  1  0
 14 15  2  0
 15 16  1  0
 16 17  2  0
 17 18  1  0
 18 19  2  0
 19 20  1  0
 20 21  2  0
 15 22  1  0
 22 23  1  0
 23 24  2  0
  9 25  2  0
 25  5  1  0
 24 10  1  0
 23 13  1  0
 21 16  1  0
M  END
$$$$
47
     RDKit          3D

 27 31  0  0  0  0  0  0  0  0999 V2000
    0.2232    3.9780    0.1034 O   0  0  0  0  0  0  0  0  0  0  0  0
    0.8105    2.8678   -0.0132 C   0  0  0  0  0  0  0  0  0  0  0  0
    2.0764    2.6673    0.7209 C   0  0  0  0  0  0  0  0  0  0  0  0
    2.6730    3.6582    1.4382 N   0  0  0  0  0  0  0  0  0  0  0  0
    3.7599    3.0381    1.9259 C   0  0  0  0  0  0  0  0  0  0  0  0
    4.7535    3.5716    2.7426 C   0  0  0  0  0  0  0  0  0  0  0  0
    5.8022    2.7141    3.1269 C   0  0  0  0  0  0  0  0  0  0  0  0
    5.8280    1.3692    2.6913 C   0  0  0  0  0  0  0  0  0  0  0  0
    4.8054    0.8641    1.8660 C   0  0  0  0  0  0  0  0  0  0  0  0
    3.7871    1.7428    1.5081 C   0  0  0  0  0  0  0  0  0  0  0  0
    2.7394    1.5217    0.7628 O   0  0  0  0  0  0  0  0  0  0  0  0
    0.2267    1.8421   -0.8396 N   0  0  0  0  0  0  0  0  0  0  0  0
    0.9846    0.6418   -1.2143 C   0  0  0  0  0  0  0  0  0  0  0  0
    0.2002   -0.2430   -2.1815 C   0  0  0  0  0  0  0  0  0  0  0  0
   -1.1796   -0.3964   -1.7147 N   0  0  0  0  0  0  0  0  0  0  0  0
   -1.8166   -1.6858   -1.7298 C   0  0  0  0  0  0  0  0  0  0  0  0
   -1.1170   -2.8262   -2.1593 C   0  0  0  0  0  0  0  0  0  0  0  0
   -1.7501   -4.0703   -2.1646 C   0  0  0  0  0  0  0  0  0  0  0  0
   -3.0738   -4.1695   -1.7418 C   0  0  0  0  0  0  0  0  0  0  0  0
   -3.7393   -5.3952   -1.7330 C   0  0  0  0  0  0  0  0  0  0  0  0
   -5.0665   -5.4558   -1.3021 C   0  0  0  0  0  0  0  0  0  0  0  0
   -5.7078   -4.2848   -0.8856 C   0  0  0  0  0  0  0  0  0  0  0  0
   -5.0442   -3.0965   -0.9002 N   0  0  0  0  0  0  0  0  0  0  0  0
   -3.7520   -3.0110   -1.3153 C   0  0  0  0  0  0  0  0  0  0  0  0
   -3.1122   -1.8115   -1.3200 N   0  0  0  0  0  0  0  0  0  0  0  0
   -1.9395    0.7811   -1.2798 C   0  0  0  0  0  0  0  0  0  0  0  0
   -1.1094    2.0580   -1.3978 C   0  0  0  0  0  0  0  0  0  0  0  0
  1  2  2  0
  2  3  1  0
  3  4  2  0
  4  5  1  0
  5  6  2  0
  6  7  1  0
  7  8  2  0
  8  9  1  0
  9 10  2  0
 10 11  1  0
  2 12  1  0
 12 13  1  0
 13 14  1  0
 14 15  1  0
 15 16  1  0
 16 17  2  0
 17 18  1  0
 18 19  2  0
 19 20  1  0
 20 21  2  0
 21 22  1  0
 22 23  2  0
 23 24  1  0
 24 25  2  0
 15 26  1  0
 26 27  1  0
 11  3  1  0
 27 12  1  0
 10  5  1  0
 25 16  1  0
 24 19  1  0
M  END
$$$$
48
     RDKit          3D

 26 29  0  0  0  0  0  0  0  0999 V2000
   -3.6996    0.6040    6.1478 N   0  0  0  0  0  0  0  0  0  0  0  0
   -2.6188    0.0722    5.4335 N   0  0  0  0  0  0  0  0  0  0  0  0
   -1.3324    0.6933    5.4710 C   0  0  0  0  0  0  0  0  0  0  0  0
   -1.1623    1.7381    6.1569 O   0  0  0  0  0  0  0  0  0  0  0  0
   -0.2394    0.1328    4.7309 N   0  0  0  0  0  0  0  0  0  0  0  0
    1.0815    0.7666    4.7845 C   0  0  0  0  0  0  0  0  0  0  0  0
    2.1377   -0.0882    4.0810 C   0  0  0  0  0  0  0  0  0  0  0  0
    1.6960   -0.5026    2.6714 C   0  0  0  0  0  0  0  0  0  0  0  0
    1.9844    0.6199    1.6851 C   0  0  0  0  0  0  0  0  0  0  0  0
    2.0201    0.1002    0.2883 C   0  0  0  0  0  0  0  0  0  0  0  0
    0.9829    0.1728   -0.5666 N   0  0  0  0  0  0  0  0  0  0  0  0
    1.4982   -0.4376   -1.6548 C   0  0  0  0  0  0  0  0  0  0  0  0
    0.7530   -0.6283   -2.9063 C   0  0  0  0  0  0  0  0  0  0  0  0
    1.3525   -1.2729   -3.9969 C   0  0  0  0  0  0  0  0  0  0  0  0
    0.6307   -1.4469   -5.1793 C   0  0  0  0  0  0  0  0  0  0  0  0
   -0.6795   -0.9778   -5.2637 C   0  0  0  0  0  0  0  0  0  0  0  0
   -1.4220   -1.1402   -6.4362 C   0  0  0  0  0  0  0  0  0  0  0  0
   -2.7351   -0.6622   -6.5000 C   0  0  0  0  0  0  0  0  0  0  0  0
   -3.3056   -0.0228   -5.3936 C   0  0  0  0  0  0  0  0  0  0  0  0
   -2.5662    0.1421   -4.2176 C   0  0  0  0  0  0  0  0  0  0  0  0
   -1.2537   -0.3330   -4.1470 C   0  0  0  0  0  0  0  0  0  0  0  0
   -0.5286   -0.1766   -3.0076 N   0  0  0  0  0  0  0  0  0  0  0  0
    2.7665   -0.8540   -1.4635 N   0  0  0  0  0  0  0  0  0  0  0  0
    3.0515   -0.5031   -0.2469 O   0  0  0  0  0  0  0  0  0  0  0  0
    0.2190   -0.9310    2.5828 C   0  0  0  0  0  0  0  0  0  0  0  0
   -0.4360   -1.0887    3.9520 C   0  0  0  0  0  0  0  0  0  0  0  0
  1  2  1  0
  2  3  1  0
  3  4  2  0
  3  5  1  0
  5  6  1  0
  6  7  1  0
  7  8  1  0
  8  9  1  0
  9 10  1  0
 10 11  2  0
 11 12  1  0
 12 13  1  0
 13 14  2  0
 14 15  1  0
 15 16  2  0
 16 17  1  0
 17 18  2  0
 18 19  1  0
 19 20  2  0
 20 21  1  0
 21 22  2  0
 12 23  2  0
 23 24  1  0
  8 25  1  0
 25 26  1  0
 26  5  1  0
 24 10  1  0
 22 13  1  0
 21 16  1  0
M  END
$$$$
49
     RDKit          3D

 26 29  0  0  0  0  0  0  0  0999 V2000
   -2.8448    0.6180    4.9103 N   0  0  0  0  0  0  0  0  0  0  0  0
   -1.5775    0.2467    4.4442 N   0  0  0  0  0  0  0  0  0  0  0  0
   -0.5183    1.2009    4.3470 C   0  0  0  0  0  0  0  0  0  0  0  0
   -0.7228    2.3987    4.6853 O   0  0  0  0  0  0  0  0  0  0  0  0
    0.7712    0.7996    3.8647 N   0  0  0  0  0  0  0  0  0  0  0  0
    1.8538    1.7788    3.7739 C   0  0  0  0  0  0  0  0  0  0  0  0
    2.5583    1.6375    2.4277 C   0  0  0  0  0  0  0  0  0  0  0  0
    3.0144    0.1961    2.1466 C   0  0  0  0  0  0  0  0  0  0  0  0
    2.6851   -0.1895    0.7420 C   0  0  0  0  0  0  0  0  0  0  0  0
    1.4381   -0.2110    0.2316 N   0  0  0  0  0  0  0  0  0  0  0  0
    1.6778   -0.6212   -1.0323 C   0  0  0  0  0  0  0  0  0  0  0  0
    0.6249   -0.8156   -2.0410 C   0  0  0  0  0  0  0  0  0  0  0  0
    0.9556   -1.2446   -3.3348 C   0  0  0  0  0  0  0  0  0  0  0  0
   -0.0412   -1.4312   -4.2974 C   0  0  0  0  0  0  0  0  0  0  0  0
   -1.3780   -1.1899   -3.9727 C   0  0  0  0  0  0  0  0  0  0  0  0
   -2.3801   -1.3742   -4.9292 C   0  0  0  0  0  0  0  0  0  0  0  0
   -3.7166   -1.1306   -4.5967 C   0  0  0  0  0  0  0  0  0  0  0  0
   -4.7110   -1.3139   -5.5474 O   0  0  0  0  0  0  0  0  0  0  0  0
   -4.0535   -0.7025   -3.3079 C   0  0  0  0  0  0  0  0  0  0  0  0
   -3.0562   -0.5159   -2.3453 C   0  0  0  0  0  0  0  0  0  0  0  0
   -1.7188   -0.7575   -2.6707 C   0  0  0  0  0  0  0  0  0  0  0  0
   -0.7171   -0.5733   -1.7147 C   0  0  0  0  0  0  0  0  0  0  0  0
    2.9888   -0.8339   -1.2659 N   0  0  0  0  0  0  0  0  0  0  0  0
    3.5774   -0.5559   -0.1430 O   0  0  0  0  0  0  0  0  0  0  0  0
    2.4778   -0.8423    3.1426 C   0  0  0  0  0  0  0  0  0  0  0  0
    1.0074   -0.5972    3.4880 C   0  0  0  0  0  0  0  0  0  0  0  0
  1  2  1  0
  2  3  1  0
  3  4  2  0
  3  5  1  0
  5  6  1  0
  6  7  1  0
  7  8  1  0
  8  9  1  0
  9 10  2  0
 10 11  1  0
 11 12  1  0
 12 13  2  0
 13 14  1  0
 14 15  2  0
 15 16  1  0
 16 17  2  0
 17 18  1  0
 17 19  1  0
 19 20  2  0
 20 21  1  0
 21 22  2  0
 11 23  2  0
 23 24  1  0
  8 25  1  0
 25 26  1  0
 26  5  1  0
 24  9  1  0
 22 12  1  0
 21 15  1  0
M  END
$$$$
50
     RDKit          3D

 27 31  0  0  0  0  0  0  0  0999 V2000
   -0.0046    3.0914   -1.4781 O   0  0  0  0  0  0  0  0  0  0  0  0
    0.1685    1.9817   -0.9045 C   0  0  0  0  0  0  0  0  0  0  0  0
    1.1969    1.8224    0.0848 N   0  0  0  0  0  0  0  0  0  0  0  0
    2.1169    2.8238    0.5400 C   0  0  0  0  0  0  0  0  0  0  0  0
    2.0970    4.1478    0.0245 C   0  0  0  0  0  0  0  0  0  0  0  0
    3.0076    5.1198    0.4823 C   0  0  0  0  0  0  0  0  0  0  0  0
    3.9169    4.7199    1.4543 C   0  0  0  0  0  0  0  0  0  0  0  0
    4.8780    5.4354    2.0541 N   0  0  0  0  0  0  0  0  0  0  0  0
    5.4665    4.5932    2.9025 N   0  0  0  0  0  0  0  0  0  0  0  0
    4.9198    3.3787    2.8647 N   0  0  0  0  0  0  0  0  0  0  0  0
    3.9425    3.4585    1.9515 C   0  0  0  0  0  0  0  0  0  0  0  0
    3.0610    2.4705    1.5260 C   0  0  0  0  0  0  0  0  0  0  0  0
   -0.6925    0.8379   -1.2528 C   0  0  0  0  0  0  0  0  0  0  0  0
   -1.7113    0.9830   -2.2281 C   0  0  0  0  0  0  0  0  0  0  0  0
   -2.5423   -0.0987   -2.5726 C   0  0  0  0  0  0  0  0  0  0  0  0
   -2.3218   -1.3070   -1.9191 C   0  0  0  0  0  0  0  0  0  0  0  0
   -2.9848   -2.4597   -2.0850 N   0  0  0  0  0  0  0  0  0  0  0  0
   -2.3590   -3.2901   -1.2073 C   0  0  0  0  0  0  0  0  0  0  0  0
   -2.7461   -4.6991   -1.0275 C   0  0  0  0  0  0  0  0  0  0  0  0
   -2.0648   -5.5088   -0.1075 C   0  0  0  0  0  0  0  0  0  0  0  0
   -2.4325   -6.8468    0.0632 C   0  0  0  0  0  0  0  0  0  0  0  0
   -3.4837   -7.3836   -0.6851 C   0  0  0  0  0  0  0  0  0  0  0  0
   -4.1674   -6.5827   -1.6040 C   0  0  0  0  0  0  0  0  0  0  0  0
   -3.7998   -5.2447   -1.7747 C   0  0  0  0  0  0  0  0  0  0  0  0
   -1.3454   -2.7093   -0.5095 N   0  0  0  0  0  0  0  0  0  0  0  0
   -1.3471   -1.4555   -0.9824 C   0  0  0  0  0  0  0  0  0  0  0  0
   -0.5065   -0.4083   -0.6163 C   0  0  0  0  0  0  0  0  0  0  0  0
  1  2  2  0
  2  3  1  0
  3  4  1  0
  4  5  2  0
  5  6  1  0
  6  7  2  0
  7  8  1  0
  8  9  1  0
  9 10  2  0
 10 11  1  0
 11 12  2  0
  2 13  1  0
 13 14  2  0
 14 15  1  0
 15 16  2  0
 16 17  1  0
 17 18  1  0
 18 19  1  0
 19 20  2  0
 20 21  1  0
 21 22  2  0
 22 23  1  0
 23 24  2  0
 18 25  2  0
 25 26  1  0
 26 27  2  0
 12  4  1  0
 27 13  1  0
 11  7  1  0
 26 16  1  0
 24 19  1  0
M  END
$$$$
51
     RDKit          3D

 24 27  0  0  0  0  0  0  0  0999 V2000
    1.3463   -3.1597   -6.6033 N   0  0  0  0  0  0  0  0  0  0  0  0
    2.2553   -3.5302   -5.5328 C   0  0  0  0  0  0  0  0  0  0  0  0
    1.8878   -2.8028   -4.2825 C   0  0  0  0  0  0  0  0  0  0  0  0
    0.9629   -3.3797   -3.4072 C   0  0  0  0  0  0  0  0  0  0  0  0
    0.5869   -2.7115   -2.2396 C   0  0  0  0  0  0  0  0  0  0  0  0
    1.1269   -1.4528   -1.9305 C   0  0  0  0  0  0  0  0  0  0  0  0
    0.7281   -0.7443   -0.6909 C   0  0  0  0  0  0  0  0  0  0  0  0
    1.2667    0.5143   -0.3816 C   0  0  0  0  0  0  0  0  0  0  0  0
    0.8902    1.1805    0.7862 C   0  0  0  0  0  0  0  0  0  0  0  0
   -0.0295    0.5954    1.6584 C   0  0  0  0  0  0  0  0  0  0  0  0
   -0.5835   -0.6623    1.3734 C   0  0  0  0  0  0  0  0  0  0  0  0
   -1.5602   -1.2849    2.2983 C   0  0  0  0  0  0  0  0  0  0  0  0
   -2.1169   -2.5577    2.0039 C   0  0  0  0  0  0  0  0  0  0  0  0
   -3.0450   -3.1639    2.8699 C   0  0  0  0  0  0  0  0  0  0  0  0
   -3.3925   -2.4663    4.0218 C   0  0  0  0  0  0  0  0  0  0  0  0
   -4.2472   -2.8431    4.9819 N   0  0  0  0  0  0  0  0  0  0  0  0
   -4.2072   -1.8008    5.8542 C   0  0  0  0  0  0  0  0  0  0  0  0
   -3.3675   -0.8009    5.4748 N   0  0  0  0  0  0  0  0  0  0  0  0
   -2.8683   -1.2495    4.3156 C   0  0  0  0  0  0  0  0  0  0  0  0
   -1.9481   -0.6185    3.4838 C   0  0  0  0  0  0  0  0  0  0  0  0
   -0.1960   -1.3210    0.1954 C   0  0  0  0  0  0  0  0  0  0  0  0
    2.0500   -0.8764   -2.8180 C   0  0  0  0  0  0  0  0  0  0  0  0
    2.4297   -1.5404   -3.9880 C   0  0  0  0  0  0  0  0  0  0  0  0
    3.3671   -0.9250   -4.8669 N   0  0  0  0  0  0  0  0  0  0  0  0
  1  2  1  0
  2  3  1  0
  3  4  2  0
  4  5  1  0
  5  6  2  0
  6  7  1  0
  7  8  2  0
  8  9  1  0
  9 10  2  0
 10 11  1  0
 11 12  1  0
 12 13  2  0
 13 14  1  0
 14 15  2  0
 15 16  1  0
 16 17  2  0
 17 18  1  0
 18 19  1  0
 19 20  2  0
 11 21  2  0
  6 22  1  0
 22 23  2  0
 23 24  1  0
 23  3  1  0
 21  7  1  0
 20 12  1  0
 19 15  1  0
M  END
$$$$
52
     RDKit          3D

 27 31  0  0  0  0  0  0  0  0999 V2000
    2.9136    0.3370   -3.2710 O   0  0  0  0  0  0  0  0  0  0  0  0
    2.6726   -0.3937   -2.2724 C   0  0  0  0  0  0  0  0  0  0  0  0
    3.6902   -0.4759   -1.1782 C   0  0  0  0  0  0  0  0  0  0  0  0
    3.4766    0.6150   -0.1845 C   0  0  0  0  0  0  0  0  0  0  0  0
    2.6404    0.3951    0.9331 C   0  0  0  0  0  0  0  0  0  0  0  0
    2.4109    1.4200    1.8682 C   0  0  0  0  0  0  0  0  0  0  0  0
    3.0326    2.6470    1.6466 C   0  0  0  0  0  0  0  0  0  0  0  0
    2.9415    3.7428    2.4125 N   0  0  0  0  0  0  0  0  0  0  0  0
    3.7134    4.6661    1.7868 C   0  0  0  0  0  0  0  0  0  0  0  0
    4.2944    4.1564    0.6234 C   0  0  0  0  0  0  0  0  0  0  0  0
    3.8370    2.8621    0.5654 C   0  0  0  0  0  0  0  0  0  0  0  0
    4.0850    1.8696   -0.3796 C   0  0  0  0  0  0  0  0  0  0  0  0
    1.4251   -1.0992   -2.1784 N   0  0  0  0  0  0  0  0  0  0  0  0
    1.1798   -2.0198   -1.0618 C   0  0  0  0  0  0  0  0  0  0  0  0
   -0.1886   -2.6894   -1.1757 C   0  0  0  0  0  0  0  0  0  0  0  0
   -1.2026   -1.6973   -1.5278 N   0  0  0  0  0  0  0  0  0  0  0  0
   -2.4643   -1.7102   -0.8520 C   0  0  0  0  0  0  0  0  0  0  0  0
   -3.4690   -0.8374   -1.1357 N   0  0  0  0  0  0  0  0  0  0  0  0
   -4.4201   -1.2255   -0.2700 C   0  0  0  0  0  0  0  0  0  0  0  0
   -5.6922   -0.6848   -0.1019 C   0  0  0  0  0  0  0  0  0  0  0  0
   -6.5172   -1.2674    0.8791 C   0  0  0  0  0  0  0  0  0  0  0  0
   -6.0556   -2.3570    1.6529 C   0  0  0  0  0  0  0  0  0  0  0  0
   -4.7629   -2.8785    1.4560 C   0  0  0  0  0  0  0  0  0  0  0  0
   -3.9776   -2.2761    0.4774 C   0  0  0  0  0  0  0  0  0  0  0  0
   -2.7610   -2.5709    0.1093 O   0  0  0  0  0  0  0  0  0  0  0  0
   -0.9593   -0.7289   -2.6009 C   0  0  0  0  0  0  0  0  0  0  0  0
    0.4192   -0.9295   -3.2274 C   0  0  0  0  0  0  0  0  0  0  0  0
  1  2  2  0
  2  3  1  0
  3  4  1  0
  4  5  2  0
  5  6  1  0
  6  7  2  0
  7  8  1  0
  8  9  1  0
  9 10  2  0
 10 11  1  0
 11 12  2  0
  2 13  1  0
 13 14  1  0
 14 15  1  0
 15 16  1  0
 16 17  1  0
 17 18  2  0
 18 19  1  0
 19 20  2  0
 20 21  1  0
 21 22  2  0
 22 23  1  0
 23 24  2  0
 24 25  1  0
 16 26  1  0
 26 27  1  0
 12  4  1  0
 27 13  1  0
 11  7  1  0
 25 17  1  0
 24 19  1  0
M  END
$$$$
53
     RDKit          3D

 28 32  0  0  0  0  0  0  0  0999 V2000
   -0.8442    3.2538    0.4406 O   0  0  0  0  0  0  0  0  0  0  0  0
   -1.5424    2.2094    0.3243 C   0  0  0  0  0  0  0  0  0  0  0  0
   -2.3133    1.7385    1.4351 N   0  0  0  0  0  0  0  0  0  0  0  0
   -2.2840    2.3742    2.7454 C   0  0  0  0  0  0  0  0  0  0  0  0
   -1.0280    2.0196    3.4665 C   0  0  0  0  0  0  0  0  0  0  0  0
    0.0218    2.9664    3.5557 C   0  0  0  0  0  0  0  0  0  0  0  0
    1.2234    2.6483    4.2189 C   0  0  0  0  0  0  0  0  0  0  0  0
    1.3196    1.3747    4.7694 C   0  0  0  0  0  0  0  0  0  0  0  0
    2.3373    0.8218    5.4424 N   0  0  0  0  0  0  0  0  0  0  0  0
    1.9158   -0.3851    5.7338 O   0  0  0  0  0  0  0  0  0  0  0  0
    0.7074   -0.6556    5.3025 N   0  0  0  0  0  0  0  0  0  0  0  0
    0.3178    0.4666    4.6836 C   0  0  0  0  0  0  0  0  0  0  0  0
   -0.8840    0.7383    4.0384 C   0  0  0  0  0  0  0  0  0  0  0  0
   -1.5648    1.4961   -0.9194 N   0  0  0  0  0  0  0  0  0  0  0  0
   -2.3956    0.3004   -1.0570 C   0  0  0  0  0  0  0  0  0  0  0  0
   -1.6116   -0.8013   -1.7682 C   0  0  0  0  0  0  0  0  0  0  0  0
   -0.9025   -0.2882   -2.9486 N   0  0  0  0  0  0  0  0  0  0  0  0
   -0.1472   -1.1862   -3.7849 C   0  0  0  0  0  0  0  0  0  0  0  0
    0.5223   -0.7005   -4.9405 C   0  0  0  0  0  0  0  0  0  0  0  0
    1.2672   -1.5605   -5.7682 C   0  0  0  0  0  0  0  0  0  0  0  0
    1.3198   -2.9015   -5.4070 C   0  0  0  0  0  0  0  0  0  0  0  0
    1.9477   -3.9776   -5.9890 C   0  0  0  0  0  0  0  0  0  0  0  0
    1.6664   -5.0567   -5.2153 N   0  0  0  0  0  0  0  0  0  0  0  0
    0.8989   -4.6996   -4.1890 N   0  0  0  0  0  0  0  0  0  0  0  0
    0.6851   -3.3820   -4.3034 C   0  0  0  0  0  0  0  0  0  0  0  0
   -0.0597   -2.5613   -3.4626 C   0  0  0  0  0  0  0  0  0  0  0  0
   -1.0090    1.1302   -3.3009 C   0  0  0  0  0  0  0  0  0  0  0  0
   -0.7932    1.9965   -2.0616 C   0  0  0  0  0  0  0  0  0  0  0  0
  1  2  2  0
  2  3  1  0
  3  4  1  0
  4  5  1  0
  5  6  1  0
  6  7  2  0
  7  8  1  0
  8  9  2  0
  9 10  1  0
 10 11  1  0
 11 12  2  0
 12 13  1  0
  2 14  1  0
 14 15  1  0
 15 16  1  0
 16 17  1  0
 17 18  1  0
 18 19  2  0
 19 20  1  0
 20 21  2  0
 21 22  1  0
 22 23  2  0
 23 24  1  0
 24 25  1  0
 25 26  2  0
 17 27  1  0
 27 28  1  0
 13  5  2  0
 28 14  1  0
 12  8  1  0
 26 18  1  0
 25 21  1  0
M  END
$$$$
54
     RDKit          3D

 28 32  0  0  0  0  0  0  0  0999 V2000
   -2.7131   -2.0891    2.0992 O   0  0  0  0  0  0  0  0  0  0  0  0
   -2.4166   -1.3015    1.1586 C   0  0  0  0  0  0  0  0  0  0  0  0
   -1.0161   -0.8335    1.0364 C   0  0  0  0  0  0  0  0  0  0  0  0
   -0.5292   -0.3056   -0.1676 C   0  0  0  0  0  0  0  0  0  0  0  0
    0.8014    0.1063   -0.2763 C   0  0  0  0  0  0  0  0  0  0  0  0
    1.6737   -0.0088    0.8154 C   0  0  0  0  0  0  0  0  0  0  0  0
    3.0802    0.4311    0.6912 C   0  0  0  0  0  0  0  0  0  0  0  0
    3.9655    0.3199    1.7759 C   0  0  0  0  0  0  0  0  0  0  0  0
    5.2893    0.7408    1.6392 C   0  0  0  0  0  0  0  0  0  0  0  0
    5.7235    1.2692    0.4250 C   0  0  0  0  0  0  0  0  0  0  0  0
    7.0439    1.6972    0.2638 C   0  0  0  0  0  0  0  0  0  0  0  0
    7.4594    2.2246   -0.9633 C   0  0  0  0  0  0  0  0  0  0  0  0
    6.5567    2.3242   -2.0280 C   0  0  0  0  0  0  0  0  0  0  0  0
    5.2339    1.8969   -1.8711 C   0  0  0  0  0  0  0  0  0  0  0  0
    4.8123    1.3689   -0.6476 C   0  0  0  0  0  0  0  0  0  0  0  0
    3.5285    0.9517   -0.4875 N   0  0  0  0  0  0  0  0  0  0  0  0
    1.1901   -0.5492    2.0169 C   0  0  0  0  0  0  0  0  0  0  0  0
   -0.1409   -0.9606    2.1244 C   0  0  0  0  0  0  0  0  0  0  0  0
   -3.4415   -0.9002    0.2314 N   0  0  0  0  0  0  0  0  0  0  0  0
   -3.3972    0.4433   -0.3738 C   0  0  0  0  0  0  0  0  0  0  0  0
   -4.6969    0.8272   -1.0903 C   0  0  0  0  0  0  0  0  0  0  0  0
   -5.2330   -0.3273   -1.8710 C   0  0  0  0  0  0  0  0  0  0  0  0
   -5.8162   -0.1323   -3.1264 C   0  0  0  0  0  0  0  0  0  0  0  0
   -6.3495   -1.2222   -3.8227 C   0  0  0  0  0  0  0  0  0  0  0  0
   -6.3092   -2.5025   -3.2591 C   0  0  0  0  0  0  0  0  0  0  0  0
   -5.7352   -2.6956   -1.9980 C   0  0  0  0  0  0  0  0  0  0  0  0
   -5.1938   -1.6081   -1.3068 C   0  0  0  0  0  0  0  0  0  0  0  0
   -4.5991   -1.7859    0.0528 C   0  0  0  0  0  0  0  0  0  0  0  0
  1  2  2  0
  2  3  1  0
  3  4  2  0
  4  5  1  0
  5  6  2  0
  6  7  1  0
  7  8  2  0
  8  9  1  0
  9 10  2  0
 10 11  1  0
 11 12  2  0
 12 13  1  0
 13 14  2  0
 14 15  1  0
 15 16  2  0
  6 17  1  0
 17 18  2  0
  2 19  1  0
 19 20  1  0
 20 21  1  0
 21 22  1  0
 22 23  2  0
 23 24  1  0
 24 25  2  0
 25 26  1  0
 26 27  2  0
 27 28  1  0
 18  3  1  0
 28 19  1  0
 16  7  1  0
 27 22  1  0
 15 10  1  0
M  END
$$$$
55
     RDKit          3D

 27 30  0  0  0  0  0  0  0  0999 V2000
    0.9075    1.0451    8.5351 N   0  0  0  0  0  0  0  0  0  0  0  0
    1.1991    0.6866    7.2130 N   0  0  0  0  0  0  0  0  0  0  0  0
    1.5647    1.6720    6.2449 C   0  0  0  0  0  0  0  0  0  0  0  0
    1.6261    2.8862    6.5813 O   0  0  0  0  0  0  0  0  0  0  0  0
    1.8580    1.2833    4.8959 N   0  0  0  0  0  0  0  0  0  0  0  0
    1.8146   -0.1336    4.5209 C   0  0  0  0  0  0  0  0  0  0  0  0
    2.2485   -0.3404    3.0710 C   0  0  0  0  0  0  0  0  0  0  0  0
    1.5872    0.6362    2.2040 N   0  0  0  0  0  0  0  0  0  0  0  0
    1.0291    0.2073    0.9500 C   0  0  0  0  0  0  0  0  0  0  0  0
    0.4098    1.1180    0.0880 C   0  0  0  0  0  0  0  0  0  0  0  0
   -0.1219    0.6680   -1.1166 C   0  0  0  0  0  0  0  0  0  0  0  0
   -0.0294   -0.6877   -1.4463 C   0  0  0  0  0  0  0  0  0  0  0  0
   -0.5823   -1.2035   -2.7169 C   0  0  0  0  0  0  0  0  0  0  0  0
   -0.4780   -2.5682   -3.0265 C   0  0  0  0  0  0  0  0  0  0  0  0
   -0.9959   -3.0697   -4.2235 C   0  0  0  0  0  0  0  0  0  0  0  0
   -1.6254   -2.2114   -5.1269 C   0  0  0  0  0  0  0  0  0  0  0  0
   -2.1429   -2.7138   -6.3235 C   0  0  0  0  0  0  0  0  0  0  0  0
   -2.7731   -1.8550   -7.2280 C   0  0  0  0  0  0  0  0  0  0  0  0
   -2.8878   -0.4920   -6.9393 C   0  0  0  0  0  0  0  0  0  0  0  0
   -2.3740    0.0236   -5.7450 C   0  0  0  0  0  0  0  0  0  0  0  0
   -2.4997    1.3827   -5.4791 O   0  0  0  0  0  0  0  0  0  0  0  0
   -1.7392   -0.8329   -4.8305 C   0  0  0  0  0  0  0  0  0  0  0  0
   -1.2160   -0.3425   -3.6275 C   0  0  0  0  0  0  0  0  0  0  0  0
    0.5824   -1.5339   -0.5724 N   0  0  0  0  0  0  0  0  0  0  0  0
    1.0924   -1.1025    0.5829 N   0  0  0  0  0  0  0  0  0  0  0  0
    1.5471    2.0531    2.5897 C   0  0  0  0  0  0  0  0  0  0  0  0
    2.2611    2.2949    3.9186 C   0  0  0  0  0  0  0  0  0  0  0  0
  1  2  1  0
  2  3  1  0
  3  4  2  0
  3  5  1  0
  5  6  1  0
  6  7  1  0
  7  8  1  0
  8  9  1  0
  9 10  2  0
 10 11  1  0
 11 12  2  0
 12 13  1  0
 13 14  2  0
 14 15  1  0
 15 16  2  0
 16 17  1  0
 17 18  2  0
 18 19  1  0
 19 20  2  0
 20 21  1  0
 20 22  1  0
 22 23  2  0
 12 24  1  0
 24 25  2  0
  8 26  1  0
 26 27  1  0
 27  5  1  0
 25  9  1  0
 23 13  1  0
 22 16  1  0
M  END
$$$$
56
     RDKit          3D

 26 29  0  0  0  0  0  0  0  0999 V2000
   -3.0579   -1.4422    0.8168 O   0  0  0  0  0  0  0  0  0  0  0  0
   -2.6980   -1.9258    1.9246 C   0  0  0  0  0  0  0  0  0  0  0  0
   -1.3344   -1.8179    2.3613 N   0  0  0  0  0  0  0  0  0  0  0  0
   -0.2532   -1.1911    1.6583 C   0  0  0  0  0  0  0  0  0  0  0  0
    1.0307   -1.1834    2.2518 C   0  0  0  0  0  0  0  0  0  0  0  0
    2.0926   -0.5980    1.6200 N   0  0  0  0  0  0  0  0  0  0  0  0
    1.8966   -0.0216    0.4092 C   0  0  0  0  0  0  0  0  0  0  0  0
    2.8092    0.6178   -0.3981 C   0  0  0  0  0  0  0  0  0  0  0  0
    2.0216    0.9920   -1.4972 C   0  0  0  0  0  0  0  0  0  0  0  0
    2.5197    1.7240   -2.6806 C   0  0  0  0  0  0  0  0  0  0  0  0
    3.8731    2.0904   -2.7495 C   0  0  0  0  0  0  0  0  0  0  0  0
    4.3680    2.7826   -3.8573 C   0  0  0  0  0  0  0  0  0  0  0  0
    3.5138    3.1164   -4.9096 C   0  0  0  0  0  0  0  0  0  0  0  0
    3.9927    3.7876   -5.9841 F   0  0  0  0  0  0  0  0  0  0  0  0
    2.1652    2.7581   -4.8541 C   0  0  0  0  0  0  0  0  0  0  0  0
    1.6641    2.0651   -3.7476 C   0  0  0  0  0  0  0  0  0  0  0  0
    0.3491    1.7332   -3.7273 F   0  0  0  0  0  0  0  0  0  0  0  0
    0.7633    0.6074   -1.3477 O   0  0  0  0  0  0  0  0  0  0  0  0
    0.6805   -0.0054   -0.1985 C   0  0  0  0  0  0  0  0  0  0  0  0
   -0.4332   -0.5845    0.3967 C   0  0  0  0  0  0  0  0  0  0  0  0
   -3.6858   -2.6079    2.7788 C   0  0  0  0  0  0  0  0  0  0  0  0
   -5.0223   -2.7258    2.3743 C   0  0  0  0  0  0  0  0  0  0  0  0
   -5.9275   -3.3572    3.1694 N   0  0  0  0  0  0  0  0  0  0  0  0
   -5.5724   -3.8896    4.3694 C   0  0  0  0  0  0  0  0  0  0  0  0
   -4.2523   -3.7961    4.8135 C   0  0  0  0  0  0  0  0  0  0  0  0
   -3.3083   -3.1521    4.0123 C   0  0  0  0  0  0  0  0  0  0  0  0
  1  2  2  0
  2  3  1  0
  3  4  1  0
  4  5  2  0
  5  6  1  0
  6  7  2  0
  7  8  1  0
  8  9  2  0
  9 10  1  0
 10 11  2  0
 11 12  1  0
 12 13  2  0
 13 14  1  0
 13 15  1  0
 15 16  2  0
 16 17  1  0
  9 18  1  0
 18 19  1  0
 19 20  2  0
  2 21  1  0
 21 22  2  0
 22 23  1  0
 23 24  2  0
 24 25  1  0
 25 26  2  0
 20  4  1  0
 26 21  1  0
 19  7  1  0
 16 10  1  0
M  END
$$$$
57
     RDKit          3D

 23 26  0  0  0  0  0  0  0  0999 V2000
   -4.3089    0.2329    6.9297 N   0  0  0  0  0  0  0  0  0  0  0  0
   -3.2752    0.9544    6.3182 N   0  0  0  0  0  0  0  0  0  0  0  0
   -2.7380    0.5663    5.0535 C   0  0  0  0  0  0  0  0  0  0  0  0
   -3.2363   -0.5672    4.3729 C   0  0  0  0  0  0  0  0  0  0  0  0
   -2.7074   -0.9485    3.1287 C   0  0  0  0  0  0  0  0  0  0  0  0
   -1.6794   -0.1831    2.5802 C   0  0  0  0  0  0  0  0  0  0  0  0
   -1.0842   -0.4435    1.3893 N   0  0  0  0  0  0  0  0  0  0  0  0
   -0.1216    0.4752    1.1264 C   0  0  0  0  0  0  0  0  0  0  0  0
    0.6852    0.4708   -0.0552 N   0  0  0  0  0  0  0  0  0  0  0  0
    0.5923   -0.4908   -1.1148 C   0  0  0  0  0  0  0  0  0  0  0  0
   -0.2522   -1.4258   -1.0534 O   0  0  0  0  0  0  0  0  0  0  0  0
    1.4580   -0.3847   -2.2529 N   0  0  0  0  0  0  0  0  0  0  0  0
    2.5043    0.6478   -2.2819 C   0  0  0  0  0  0  0  0  0  0  0  0
    2.4953    1.4024   -3.6196 C   0  0  0  0  0  0  0  0  0  0  0  0
    2.3492    0.4288   -4.7425 C   0  0  0  0  0  0  0  0  0  0  0  0
    2.5813    0.5992   -6.0886 C   0  0  0  0  0  0  0  0  0  0  0  0
    2.2124   -0.5481   -6.7057 N   0  0  0  0  0  0  0  0  0  0  0  0
    1.7484   -1.4125   -5.8109 N   0  0  0  0  0  0  0  0  0  0  0  0
    1.8123   -0.8184   -4.6105 C   0  0  0  0  0  0  0  0  0  0  0  0
    1.4228   -1.4172   -3.2985 C   0  0  0  0  0  0  0  0  0  0  0  0
    0.0282    1.6358    2.3486 S   0  0  0  0  0  0  0  0  0  0  0  0
   -1.1951    0.9280    3.2533 C   0  0  0  0  0  0  0  0  0  0  0  0
   -1.7020    1.3265    4.4868 C   0  0  0  0  0  0  0  0  0  0  0  0
  1  2  1  0
  2  3  1  0
  3  4  2  0
  4  5  1  0
  5  6  2  0
  6  7  1  0
  7  8  2  0
  8  9  1  0
  9 10  1  0
 10 11  2  0
 10 12  1  0
 12 13  1  0
 13 14  1  0
 14 15  1  0
 15 16  1  0
 16 17  2  0
 17 18  1  0
 18 19  1  0
 19 20  1  0
  8 21  1  0
 21 22  1  0
 22 23  2  0
 23  3  1  0
 22  6  1  0
 20 12  1  0
 19 15  2  0
M  END
$$$$
58
     RDKit          3D

 26 29  0  0  0  0  0  0  0  0999 V2000
    0.5955    0.6696    8.9526 N   0  0  0  0  0  0  0  0  0  0  0  0
    0.8773   -0.1800    7.8754 N   0  0  0  0  0  0  0  0  0  0  0  0
    0.5368    0.1865    6.5401 C   0  0  0  0  0  0  0  0  0  0  0  0
   -0.0273    1.2914    6.3162 O   0  0  0  0  0  0  0  0  0  0  0  0
    0.8451   -0.7158    5.4699 N   0  0  0  0  0  0  0  0  0  0  0  0
    0.5798   -0.5193    4.0740 C   0  0  0  0  0  0  0  0  0  0  0  0
   -0.0438    0.6451    3.5982 C   0  0  0  0  0  0  0  0  0  0  0  0
   -0.2835    0.7961    2.2311 C   0  0  0  0  0  0  0  0  0  0  0  0
    0.0997   -0.2131    1.3496 C   0  0  0  0  0  0  0  0  0  0  0  0
   -0.1228   -0.0893    0.0145 N   0  0  0  0  0  0  0  0  0  0  0  0
    0.2428   -1.0629   -0.8689 C   0  0  0  0  0  0  0  0  0  0  0  0
   -0.0197   -0.8841   -2.3132 C   0  0  0  0  0  0  0  0  0  0  0  0
    0.3485   -1.8740   -3.2407 C   0  0  0  0  0  0  0  0  0  0  0  0
    0.0990   -1.7021   -4.6054 C   0  0  0  0  0  0  0  0  0  0  0  0
   -0.5223   -0.5372   -5.0590 C   0  0  0  0  0  0  0  0  0  0  0  0
   -0.7752   -0.3579   -6.4217 C   0  0  0  0  0  0  0  0  0  0  0  0
   -1.3980    0.8120   -6.8686 C   0  0  0  0  0  0  0  0  0  0  0  0
   -1.6487    0.9892   -8.2222 O   0  0  0  0  0  0  0  0  0  0  0  0
   -1.7688    1.8040   -5.9543 C   0  0  0  0  0  0  0  0  0  0  0  0
   -1.5189    1.6315   -4.5892 C   0  0  0  0  0  0  0  0  0  0  0  0
   -0.8970    0.4650   -4.1359 C   0  0  0  0  0  0  0  0  0  0  0  0
   -0.6441    0.2856   -2.7739 C   0  0  0  0  0  0  0  0  0  0  0  0
    0.8667   -2.2273   -0.3909 C   0  0  0  0  0  0  0  0  0  0  0  0
    1.1060   -2.3774    0.9764 C   0  0  0  0  0  0  0  0  0  0  0  0
    0.7227   -1.3681    1.8576 C   0  0  0  0  0  0  0  0  0  0  0  0
    0.9451   -1.4915    3.1930 N   0  0  0  0  0  0  0  0  0  0  0  0
  1  2  1  0
  2  3  1  0
  3  4  2  0
  3  5  1  0
  5  6  1  0
  6  7  2  0
  7  8  1  0
  8  9  2  0
  9 10  1  0
 10 11  2  0
 11 12  1  0
 12 13  2  0
 13 14  1  0
 14 15  2  0
 15 16  1  0
 16 17  2  0
 17 18  1  0
 17 19  1  0
 19 20  2  0
 20 21  1  0
 21 22  2  0
 11 23  1  0
 23 24  2  0
 24 25  1  0
 25 26  2  0
 26  6  1  0
 25  9  1  0
 22 12  1  0
 21 15  1  0
M  END
$$$$
59
     RDKit          3D

 29 33  0  0  0  0  0  0  0  0999 V2000
   -3.6211    2.4169   -1.7037 O   0  0  0  0  0  0  0  0  0  0  0  0
   -3.1249    2.8749   -0.4877 C   0  0  0  0  0  0  0  0  0  0  0  0
   -2.2559    2.1720    0.2410 C   0  0  0  0  0  0  0  0  0  0  0  0
   -1.8637    2.7179    1.5089 N   0  0  0  0  0  0  0  0  0  0  0  0
   -0.6060    2.5128    2.1652 C   0  0  0  0  0  0  0  0  0  0  0  0
   -0.4863    2.8426    3.5206 C   0  0  0  0  0  0  0  0  0  0  0  0
    0.7336    2.6830    4.1861 C   0  0  0  0  0  0  0  0  0  0  0  0
    1.8469    2.1992    3.4946 C   0  0  0  0  0  0  0  0  0  0  0  0
    3.0359    2.0386    4.1347 N   0  0  0  0  0  0  0  0  0  0  0  0
    4.1360    1.5726    3.4827 C   0  0  0  0  0  0  0  0  0  0  0  0
    4.0654    1.2467    2.1248 C   0  0  0  0  0  0  0  0  0  0  0  0
    2.8564    1.4029    1.4434 C   0  0  0  0  0  0  0  0  0  0  0  0
    1.7368    1.8805    2.1245 C   0  0  0  0  0  0  0  0  0  0  0  0
    0.5173    2.0445    1.4653 C   0  0  0  0  0  0  0  0  0  0  0  0
   -1.7835    0.8365   -0.1970 C   0  0  0  0  0  0  0  0  0  0  0  0
   -1.5977   -0.1866    0.7450 C   0  0  0  0  0  0  0  0  0  0  0  0
   -1.1465   -1.4400    0.3284 C   0  0  0  0  0  0  0  0  0  0  0  0
   -0.8869   -1.6627   -1.0223 C   0  0  0  0  0  0  0  0  0  0  0  0
   -0.4338   -2.9007   -1.4752 C   0  0  0  0  0  0  0  0  0  0  0  0
   -0.1829   -3.0937   -2.8389 C   0  0  0  0  0  0  0  0  0  0  0  0
    0.2960   -4.3935   -3.3338 C   0  0  0  0  0  0  0  0  0  0  0  0
    0.5585   -4.6537   -4.6292 N   0  0  0  0  0  0  0  0  0  0  0  0
    0.9598   -5.9406   -4.5954 C   0  0  0  0  0  0  0  0  0  0  0  0
    0.9388   -6.4282   -3.3399 N   0  0  0  0  0  0  0  0  0  0  0  0
    0.5222   -5.4583   -2.5456 N   0  0  0  0  0  0  0  0  0  0  0  0
   -0.3955   -2.0286   -3.7253 C   0  0  0  0  0  0  0  0  0  0  0  0
   -0.8382   -0.8264   -3.2663 N   0  0  0  0  0  0  0  0  0  0  0  0
   -1.0870   -0.6192   -1.9461 C   0  0  0  0  0  0  0  0  0  0  0  0
   -1.5268    0.5925   -1.5143 N   0  0  0  0  0  0  0  0  0  0  0  0
  1  2  1  0
  2  3  2  3
  3  4  1  0
  4  5  1  0
  5  6  2  0
  6  7  1  0
  7  8  2  0
  8  9  1  0
  9 10  2  0
 10 11  1  0
 11 12  2  0
 12 13  1  0
 13 14  2  0
  3 15  1  0
 15 16  2  0
 16 17  1  0
 17 18  2  0
 18 19  1  0
 19 20  2  0
 20 21  1  0
 21 22  1  0
 22 23  2  0
 23 24  1  0
 24 25  1  0
 20 26  1  0
 26 27  2  0
 27 28  1  0
 28 29  2  0
 14  5  1  0
 29 15  1  0
 13  8  1  0
 28 18  1  0
 25 21  2  0
M  END
$$$$
60
     RDKit          3D

 28 31  0  0  0  0  0  0  0  0999 V2000
   -0.4420    2.9014    8.4466 N   0  0  0  0  0  0  0  0  0  0  0  0
   -0.3390    2.7072    7.0635 N   0  0  0  0  0  0  0  0  0  0  0  0
   -0.0559    1.4170    6.5188 C   0  0  0  0  0  0  0  0  0  0  0  0
    0.1050    0.4328    7.2913 O   0  0  0  0  0  0  0  0  0  0  0  0
    0.0479    1.2359    5.0601 C   0  0  0  0  0  0  0  0  0  0  0  0
    0.3254   -0.0270    4.5199 C   0  0  0  0  0  0  0  0  0  0  0  0
    0.4237   -0.1979    3.1366 C   0  0  0  0  0  0  0  0  0  0  0  0
    0.2465    0.8904    2.2671 C   0  0  0  0  0  0  0  0  0  0  0  0
    0.3508    0.7088    0.7994 C   0  0  0  0  0  0  0  0  0  0  0  0
    0.1729    1.7986   -0.0701 C   0  0  0  0  0  0  0  0  0  0  0  0
    0.2701    1.6329   -1.4545 C   0  0  0  0  0  0  0  0  0  0  0  0
    0.5473    0.3734   -1.9889 C   0  0  0  0  0  0  0  0  0  0  0  0
    0.6414    0.2090   -3.3330 N   0  0  0  0  0  0  0  0  0  0  0  0
    0.9144   -1.0101   -3.8689 C   0  0  0  0  0  0  0  0  0  0  0  0
    0.9818   -1.1731   -5.3490 C   0  0  0  0  0  0  0  0  0  0  0  0
   -0.3678   -1.4838   -5.9011 C   0  0  0  0  0  0  0  0  0  0  0  0
   -0.7931   -2.8132   -6.0063 C   0  0  0  0  0  0  0  0  0  0  0  0
   -2.0670   -3.1034   -6.5044 C   0  0  0  0  0  0  0  0  0  0  0  0
   -2.9187   -2.0651   -6.8940 C   0  0  0  0  0  0  0  0  0  0  0  0
   -2.4975   -0.7363   -6.7843 C   0  0  0  0  0  0  0  0  0  0  0  0
   -1.2237   -0.4454   -6.2862 C   0  0  0  0  0  0  0  0  0  0  0  0
    1.0846   -2.0895   -3.0594 N   0  0  0  0  0  0  0  0  0  0  0  0
    1.0006   -1.9777   -1.7077 C   0  0  0  0  0  0  0  0  0  0  0  0
    1.1677   -2.9989   -0.9882 O   0  0  0  0  0  0  0  0  0  0  0  0
    0.7277   -0.7299   -1.1318 C   0  0  0  0  0  0  0  0  0  0  0  0
    0.6286   -0.5561    0.2548 C   0  0  0  0  0  0  0  0  0  0  0  0
   -0.0314    2.1537    2.8135 C   0  0  0  0  0  0  0  0  0  0  0  0
   -0.1297    2.3248    4.1968 C   0  0  0  0  0  0  0  0  0  0  0  0
  1  2  1  0
  2  3  1  0
  3  4  2  0
  3  5  1  0
  5  6  2  0
  6  7  1  0
  7  8  2  0
  8  9  1  0
  9 10  2  0
 10 11  1  0
 11 12  2  0
 12 13  1  0
 13 14  2  0
 14 15  1  0
 15 16  1  0
 16 17  2  0
 17 18  1  0
 18 19  2  0
 19 20  1  0
 20 21  2  0
 14 22  1  0
 22 23  1  0
 23 24  2  0
 23 25  1  0
 25 26  2  0
  8 27  1  0
 27 28  2  0
 28  5  1  0
 26  9  1  0
 25 12  1  0
 21 16  1  0
M  END
$$$$
61
     RDKit          3D

 29 33  0  0  0  0  0  0  0  0999 V2000
   -4.2558   -0.0871    4.4444 O   0  0  0  0  0  0  0  0  0  0  0  0
   -3.1620    0.6893    4.0765 C   0  0  0  0  0  0  0  0  0  0  0  0
   -2.2172    0.2469    3.2436 C   0  0  0  0  0  0  0  0  0  0  0  0
   -1.0978    1.1107    2.9988 N   0  0  0  0  0  0  0  0  0  0  0  0
   -0.2773    1.1255    1.8234 C   0  0  0  0  0  0  0  0  0  0  0  0
    0.9486    1.7949    1.8613 C   0  0  0  0  0  0  0  0  0  0  0  0
    1.7564    1.8539    0.7224 C   0  0  0  0  0  0  0  0  0  0  0  0
    1.3460    1.2512   -0.4778 C   0  0  0  0  0  0  0  0  0  0  0  0
    2.2046    1.3110   -1.6847 C   0  0  0  0  0  0  0  0  0  0  0  0
    3.4576    1.9792   -1.6415 C   0  0  0  0  0  0  0  0  0  0  0  0
    4.2877    2.0470   -2.7753 C   0  0  0  0  0  0  0  0  0  0  0  0
    3.8284    1.4332   -3.9348 C   0  0  0  0  0  0  0  0  0  0  0  0
    4.4051    1.3574   -5.1034 O   0  0  0  0  0  0  0  0  0  0  0  0
    3.5644    0.6742   -5.8604 C   0  0  0  0  0  0  0  0  0  0  0  0
    3.7945    0.4048   -7.0680 O   0  0  0  0  0  0  0  0  0  0  0  0
    2.4290    0.2865   -5.2242 N   0  0  0  0  0  0  0  0  0  0  0  0
    2.6296    0.7883   -3.9934 C   0  0  0  0  0  0  0  0  0  0  0  0
    1.7850    0.7027   -2.8911 C   0  0  0  0  0  0  0  0  0  0  0  0
    0.1050    0.5954   -0.5149 C   0  0  0  0  0  0  0  0  0  0  0  0
   -0.7022    0.5374    0.6236 C   0  0  0  0  0  0  0  0  0  0  0  0
   -2.2614   -1.1232    2.6775 C   0  0  0  0  0  0  0  0  0  0  0  0
   -1.0805   -1.9051    2.6485 C   0  0  0  0  0  0  0  0  0  0  0  0
   -1.1075   -3.1980    2.1028 C   0  0  0  0  0  0  0  0  0  0  0  0
   -2.2900   -3.6435    1.6191 N   0  0  0  0  0  0  0  0  0  0  0  0
   -2.5653   -4.8057    1.0642 N   0  0  0  0  0  0  0  0  0  0  0  0
   -3.8560   -4.7993    0.7412 N   0  0  0  0  0  0  0  0  0  0  0  0
   -4.4209   -3.6408    1.0824 N   0  0  0  0  0  0  0  0  0  0  0  0
   -3.4179   -2.9356    1.6302 C   0  0  0  0  0  0  0  0  0  0  0  0
   -3.4635   -1.6491    2.1543 C   0  0  0  0  0  0  0  0  0  0  0  0
  1  2  1  0
  2  3  2  3
  3  4  1  0
  4  5  1  0
  5  6  2  0
  6  7  1  0
  7  8  2  0
  8  9  1  0
  9 10  2  0
 10 11  1  0
 11 12  2  0
 12 13  1  0
 13 14  1  0
 14 15  2  0
 14 16  1  0
 16 17  1  0
 17 18  2  0
  8 19  1  0
 19 20  2  0
  3 21  1  0
 21 22  1  0
 22 23  2  0
 23 24  1  0
 24 25  1  0
 25 26  2  0
 26 27  1  0
 27 28  2  0
 28 29  1  0
 20  5  1  0
 29 21  2  0
 18  9  1  0
 28 24  1  0
 17 12  1  0
M  END
$$$$
62
     RDKit          3D

 28 32  0  0  0  0  0  0  0  0999 V2000
   -0.9683    2.4443    0.6463 O   0  0  0  0  0  0  0  0  0  0  0  0
   -0.1901    1.5204    0.2838 C   0  0  0  0  0  0  0  0  0  0  0  0
    1.2334    1.7070    0.3186 N   0  0  0  0  0  0  0  0  0  0  0  0
    1.9396    2.8826    0.7385 C   0  0  0  0  0  0  0  0  0  0  0  0
    1.2639    4.0300    1.1818 C   0  0  0  0  0  0  0  0  0  0  0  0
    1.9900    5.1531    1.5817 C   0  0  0  0  0  0  0  0  0  0  0  0
    3.3827    5.1253    1.5374 C   0  0  0  0  0  0  0  0  0  0  0  0
    4.1323    6.2364    1.9323 C   0  0  0  0  0  0  0  0  0  0  0  0
    5.5293    6.1873    1.8799 C   0  0  0  0  0  0  0  0  0  0  0  0
    6.1762    5.0295    1.4335 C   0  0  0  0  0  0  0  0  0  0  0  0
    5.4297    3.9148    1.0372 C   0  0  0  0  0  0  0  0  0  0  0  0
    4.0335    3.9572    1.0870 C   0  0  0  0  0  0  0  0  0  0  0  0
    3.3009    2.8779    0.7036 N   0  0  0  0  0  0  0  0  0  0  0  0
   -0.7465    0.2374   -0.1797 C   0  0  0  0  0  0  0  0  0  0  0  0
   -2.1297    0.0314   -0.2227 C   0  0  0  0  0  0  0  0  0  0  0  0
   -2.6434   -1.1882   -0.6638 C   0  0  0  0  0  0  0  0  0  0  0  0
   -1.7658   -2.2060   -1.0635 C   0  0  0  0  0  0  0  0  0  0  0  0
   -2.2816   -3.5090   -1.5355 C   0  0  0  0  0  0  0  0  0  0  0  0
   -1.3733   -4.5257   -1.9355 C   0  0  0  0  0  0  0  0  0  0  0  0
   -1.8332   -5.7770   -2.3897 C   0  0  0  0  0  0  0  0  0  0  0  0
   -3.2094   -5.9655   -2.4264 C   0  0  0  0  0  0  0  0  0  0  0  0
   -3.9013   -7.0465   -2.8116 N   0  0  0  0  0  0  0  0  0  0  0  0
   -5.1833   -6.7173   -2.6582 N   0  0  0  0  0  0  0  0  0  0  0  0
   -5.3309   -5.4773   -2.1936 N   0  0  0  0  0  0  0  0  0  0  0  0
   -4.0862   -5.0033   -2.0474 C   0  0  0  0  0  0  0  0  0  0  0  0
   -3.6742   -3.7555   -1.5935 C   0  0  0  0  0  0  0  0  0  0  0  0
   -0.4218   -1.9833   -1.0133 N   0  0  0  0  0  0  0  0  0  0  0  0
    0.0984   -0.8015   -0.5865 C   0  0  0  0  0  0  0  0  0  0  0  0
  1  2  2  0
  2  3  1  0
  3  4  1  0
  4  5  2  0
  5  6  1  0
  6  7  2  0
  7  8  1  0
  8  9  2  0
  9 10  1  0
 10 11  2  0
 11 12  1  0
 12 13  2  0
  2 14  1  0
 14 15  2  0
 15 16  1  0
 16 17  2  0
 17 18  1  0
 18 19  2  0
 19 20  1  0
 20 21  2  0
 21 22  1  0
 22 23  1  0
 23 24  2  0
 24 25  1  0
 25 26  2  0
 17 27  1  0
 27 28  2  0
 13  4  1  0
 28 14  1  0
 12  7  1  0
 26 18  1  0
 25 21  1  0
M  END
$$$$
63
     RDKit          3D

 26 30  0  0  0  0  0  0  0  0999 V2000
   -1.3088    0.9499    3.7335 O   0  0  0  0  0  0  0  0  0  0  0  0
   -1.2616    0.4998    2.5556 C   0  0  0  0  0  0  0  0  0  0  0  0
    0.0314    0.5618    1.8366 C   0  0  0  0  0  0  0  0  0  0  0  0
    1.1949    1.0831    2.3749 C   0  0  0  0  0  0  0  0  0  0  0  0
    2.1599    0.9545    1.3934 C   0  0  0  0  0  0  0  0  0  0  0  0
    1.5229    0.3622    0.3175 C   0  0  0  0  0  0  0  0  0  0  0  0
    2.1566    0.0263   -0.9672 C   0  0  0  0  0  0  0  0  0  0  0  0
    1.4168   -0.5577   -1.9527 N   0  0  0  0  0  0  0  0  0  0  0  0
    1.9529   -0.8887   -3.1589 C   0  0  0  0  0  0  0  0  0  0  0  0
    3.2993   -0.6311   -3.4158 C   0  0  0  0  0  0  0  0  0  0  0  0
    3.8516   -0.9552   -4.6153 N   0  0  0  0  0  0  0  0  0  0  0  0
    5.1641   -0.7094   -4.8794 C   0  0  0  0  0  0  0  0  0  0  0  0
    5.9782   -0.1125   -3.9113 C   0  0  0  0  0  0  0  0  0  0  0  0
    5.4328    0.2293   -2.6714 C   0  0  0  0  0  0  0  0  0  0  0  0
    4.0860   -0.0288   -2.4155 C   0  0  0  0  0  0  0  0  0  0  0  0
    3.5137    0.3011   -1.1876 C   0  0  0  0  0  0  0  0  0  0  0  0
    0.2269    0.1206    0.5809 N   0  0  0  0  0  0  0  0  0  0  0  0
   -2.4991   -0.0640    1.9589 C   0  0  0  0  0  0  0  0  0  0  0  0
   -2.5186   -0.5867    0.6410 C   0  0  0  0  0  0  0  0  0  0  0  0
   -3.6960   -1.1183    0.0858 C   0  0  0  0  0  0  0  0  0  0  0  0
   -4.8383   -1.1109    0.8789 C   0  0  0  0  0  0  0  0  0  0  0  0
   -4.8350   -0.6146    2.1407 C   0  0  0  0  0  0  0  0  0  0  0  0
   -3.6883   -0.0810    2.7218 C   0  0  0  0  0  0  0  0  0  0  0  0
   -6.0972   -0.7363    2.6864 O   0  0  0  0  0  0  0  0  0  0  0  0
   -6.9476   -1.3477    1.7061 C   0  0  0  0  0  0  0  0  0  0  0  0
   -6.1027   -1.5697    0.5681 O   0  0  0  0  0  0  0  0  0  0  0  0
  1  2  2  0
  2  3  1  0
  3  4  2  0
  4  5  1  0
  5  6  2  0
  6  7  1  0
  7  8  2  0
  8  9  1  0
  9 10  2  0
 10 11  1  0
 11 12  2  0
 12 13  1  0
 13 14  2  0
 14 15  1  0
 15 16  2  0
  6 17  1  0
  2 18  1  0
 18 19  2  0
 19 20  1  0
 20 21  2  0
 21 22  1  0
 22 23  2  0
 22 24  1  0
 24 25  1  0
 25 26  1  0
 17  3  1  0
 23 18  1  0
 16  7  1  0
 26 21  1  0
 15 10  1  0
M  END
$$$$
